*SPEF "ieee 1481-1999"
*DESIGN "TwosComplementer"
*DATE "14:14:28 Wednesday April 23, 2025"
*VENDOR "The OpenROAD Project"
*PROGRAM "OpenROAD"
*VERSION "b16bda7e82721d10566ff7e2b68f1ff0be9f9e38"
*DESIGN_FLOW "NAME_SCOPE LOCAL" "PIN_CAP NONE"
*DIVIDER /
*DELIMITER :
*BUS_DELIMITER []
*T_UNIT 1 NS
*C_UNIT 1 PF
*R_UNIT 1 OHM
*L_UNIT 1 HENRY

*NAME_MAP
*3 x[0]
*4 x[1]
*5 x[2]
*6 x[3]
*7 x[4]
*8 x[5]
*9 x[6]
*10 x[7]
*11 z[0]
*12 z[1]
*13 z[2]
*14 z[3]
*15 z[4]
*16 z[5]
*17 z[6]
*18 z[7]
*19 _00_
*20 _01_
*21 _02_
*22 _03_
*23 _04_
*24 _05_
*25 _06_
*26 _07_
*27 _08_
*28 net1
*29 net10
*30 net11
*31 net12
*32 net13
*33 net14
*34 net15
*35 net16
*36 net2
*37 net3
*38 net4
*39 net5
*40 net6
*41 net7
*42 net8
*43 net9
*44 FILLER_0_0_21
*45 FILLER_0_0_27
*46 FILLER_0_0_29
*47 FILLER_0_0_37
*48 FILLER_0_0_9
*49 FILLER_0_10_18
*50 FILLER_0_10_26
*51 FILLER_0_10_29
*52 FILLER_0_10_37
*53 FILLER_0_10_6
*54 FILLER_0_11_18
*55 FILLER_0_11_30
*56 FILLER_0_11_34
*57 FILLER_0_11_41
*58 FILLER_0_11_47
*59 FILLER_0_11_6
*60 FILLER_0_12_13
*61 FILLER_0_12_25
*62 FILLER_0_12_29
*63 FILLER_0_1_16
*64 FILLER_0_1_22
*65 FILLER_0_1_3
*66 FILLER_0_1_30
*67 FILLER_0_1_42
*68 FILLER_0_1_9
*69 FILLER_0_2_21
*70 FILLER_0_2_27
*71 FILLER_0_2_29
*72 FILLER_0_2_41
*73 FILLER_0_2_47
*74 FILLER_0_2_9
*75 FILLER_0_3_10
*76 FILLER_0_3_22
*77 FILLER_0_3_3
*78 FILLER_0_3_34
*79 FILLER_0_3_38
*80 FILLER_0_4_15
*81 FILLER_0_4_24
*82 FILLER_0_4_29
*83 FILLER_0_4_3
*84 FILLER_0_4_41
*85 FILLER_0_4_47
*86 FILLER_0_5_18
*87 FILLER_0_5_30
*88 FILLER_0_5_35
*89 FILLER_0_5_43
*90 FILLER_0_5_6
*91 FILLER_0_6_15
*92 FILLER_0_6_23
*93 FILLER_0_6_27
*94 FILLER_0_6_29
*95 FILLER_0_6_3
*96 FILLER_0_6_37
*97 FILLER_0_6_45
*98 FILLER_0_7_15
*99 FILLER_0_7_27
*100 FILLER_0_7_3
*101 FILLER_0_7_35
*102 FILLER_0_8_18
*103 FILLER_0_8_26
*104 FILLER_0_8_29
*105 FILLER_0_8_35
*106 FILLER_0_8_6
*107 FILLER_0_9_15
*108 FILLER_0_9_27
*109 FILLER_0_9_3
*110 FILLER_0_9_39
*111 FILLER_0_9_47
*112 PHY_EDGE_ROW_0_Left_13
*113 PHY_EDGE_ROW_0_Right_0
*114 PHY_EDGE_ROW_10_Left_23
*115 PHY_EDGE_ROW_10_Right_10
*116 PHY_EDGE_ROW_11_Left_24
*117 PHY_EDGE_ROW_11_Right_11
*118 PHY_EDGE_ROW_12_Left_25
*119 PHY_EDGE_ROW_12_Right_12
*120 PHY_EDGE_ROW_1_Left_14
*121 PHY_EDGE_ROW_1_Right_1
*122 PHY_EDGE_ROW_2_Left_15
*123 PHY_EDGE_ROW_2_Right_2
*124 PHY_EDGE_ROW_3_Left_16
*125 PHY_EDGE_ROW_3_Right_3
*126 PHY_EDGE_ROW_4_Left_17
*127 PHY_EDGE_ROW_4_Right_4
*128 PHY_EDGE_ROW_5_Left_18
*129 PHY_EDGE_ROW_5_Right_5
*130 PHY_EDGE_ROW_6_Left_19
*131 PHY_EDGE_ROW_6_Right_6
*132 PHY_EDGE_ROW_7_Left_20
*133 PHY_EDGE_ROW_7_Right_7
*134 PHY_EDGE_ROW_8_Left_21
*135 PHY_EDGE_ROW_8_Right_8
*136 PHY_EDGE_ROW_9_Left_22
*137 PHY_EDGE_ROW_9_Right_9
*138 TAP_TAPCELL_ROW_0_26
*139 TAP_TAPCELL_ROW_10_31
*140 TAP_TAPCELL_ROW_12_32
*141 TAP_TAPCELL_ROW_2_27
*142 TAP_TAPCELL_ROW_4_28
*143 TAP_TAPCELL_ROW_6_29
*144 TAP_TAPCELL_ROW_8_30
*145 _09_
*146 _10_
*147 _11_
*148 _12_
*149 _13_
*150 _14_
*151 _15_
*152 _16_
*153 _17_
*154 _18_
*155 _19_
*156 _20_
*157 _21_
*158 _22_
*159 _23_
*160 _24_
*161 _25_
*162 input1
*163 input2
*164 input3
*165 input4
*166 input5
*167 input6
*168 input7
*169 input8
*170 output10
*171 output11
*172 output12
*173 output13
*174 output14
*175 output15
*176 output16
*177 output9

*PORTS
x[0] I
x[1] I
x[2] I
x[3] I
x[4] I
x[5] I
x[6] I
x[7] I
z[0] O
z[1] O
z[2] O
z[3] O
z[4] O
z[5] O
z[6] O
z[7] O

*D_NET *3 0.000986291
*CONN
*P x[0] I
*I *162:A I *D sky130_fd_sc_hd__dlymetal6s2s_1
*CAP
1 x[0] 0.000493145
2 *162:A 0.000493145
3 *162:A *163:A 0
*RES
1 x[0] *162:A 9.94677 
*END

*D_NET *4 0.000708939
*CONN
*P x[1] I
*I *163:A I *D sky130_fd_sc_hd__buf_1
*CAP
1 x[1] 0.00035447
2 *163:A 0.00035447
3 *163:A *164:A 0
4 *162:A *163:A 0
*RES
1 x[1] *163:A 8.3643 
*END

*D_NET *5 0.000531065
*CONN
*P x[2] I
*I *164:A I *D sky130_fd_sc_hd__buf_1
*CAP
1 x[2] 0.000265532
2 *164:A 0.000265532
3 *164:A *165:A 0
4 *163:A *164:A 0
*RES
1 x[2] *164:A 6.8343 
*END

*D_NET *6 0.000645774
*CONN
*P x[3] I
*I *165:A I *D sky130_fd_sc_hd__clkbuf_1
*CAP
1 x[3] 0.000322887
2 *165:A 0.000322887
3 *165:A *166:A 0
4 *165:A *39:32 0
5 *164:A *165:A 0
*RES
1 x[3] *165:A 7.8543 
*END

*D_NET *7 0.000566003
*CONN
*P x[4] I
*I *166:A I *D sky130_fd_sc_hd__buf_1
*CAP
1 x[4] 0.000283002
2 *166:A 0.000283002
3 *166:A *167:A 0
4 *166:A *39:10 0
5 *165:A *166:A 0
*RES
1 x[4] *166:A 7.0893 
*END

*D_NET *8 0.000523624
*CONN
*P x[5] I
*I *167:A I *D sky130_fd_sc_hd__buf_1
*CAP
1 x[5] 0.000261812
2 *167:A 0.000261812
3 *167:A *168:A 0
4 *166:A *167:A 0
*RES
1 x[5] *167:A 6.8343 
*END

*D_NET *9 0.000523624
*CONN
*P x[6] I
*I *168:A I *D sky130_fd_sc_hd__buf_1
*CAP
1 x[6] 0.000261812
2 *168:A 0.000261812
3 *168:A *169:A 0
4 *167:A *168:A 0
*RES
1 x[6] *168:A 6.8343 
*END

*D_NET *10 0.00115517
*CONN
*P x[7] I
*I *169:A I *D sky130_fd_sc_hd__clkbuf_1
*CAP
1 x[7] 0.000577586
2 *169:A 0.000577586
3 *168:A *169:A 0
*RES
1 x[7] *169:A 10.6316 
*END

*D_NET *11 0.00109227
*CONN
*P z[0] O
*I *177:X O *D sky130_fd_sc_hd__buf_2
*CAP
1 z[0] 0.000546133
2 *177:X 0.000546133
3 z[0] z[1] 0
*RES
1 *177:X z[0] 9.66983 
*END

*D_NET *12 0.000411239
*CONN
*P z[1] O
*I *170:X O *D sky130_fd_sc_hd__buf_2
*CAP
1 z[1] 0.00020562
2 *170:X 0.00020562
3 z[1] z[2] 0
4 z[0] z[1] 0
*RES
1 *170:X z[1] 4.84677 
*END

*D_NET *13 0.000438859
*CONN
*P z[2] O
*I *171:X O *D sky130_fd_sc_hd__buf_2
*CAP
1 z[2] 0.000209148
2 *171:X 0.000209148
3 z[2] z[3] 0
4 z[2] *151:B 2.05641e-05
5 z[1] z[2] 0
*RES
1 *171:X z[2] 4.84677 
*END

*D_NET *14 0.000538223
*CONN
*P z[3] O
*I *172:X O *D sky130_fd_sc_hd__buf_2
*CAP
1 z[3] 0.00022614
2 *172:X 0.00022614
3 z[3] z[4] 0
4 z[3] *158:B 4.4123e-05
5 z[3] *41:18 4.18203e-05
6 z[2] z[3] 0
*RES
1 *172:X z[3] 5.10177 
*END

*D_NET *15 0.00043721
*CONN
*P z[4] O
*I *173:X O *D sky130_fd_sc_hd__buf_2
*CAP
1 z[4] 0.000203317
2 *173:X 0.000203317
3 z[4] z[5] 0
4 z[4] *173:A 1.17114e-05
5 z[4] *41:18 1.88656e-05
6 z[3] z[4] 0
*RES
1 *173:X z[4] 4.84677 
*END

*D_NET *16 0.000620645
*CONN
*P z[5] O
*I *174:X O *D sky130_fd_sc_hd__buf_2
*CAP
1 z[5] 0.000226806
2 *174:X 0.000226806
3 z[5] z[6] 0
4 z[5] *174:A 6.06899e-05
5 z[5] *41:18 0.000106344
6 z[4] z[5] 0
*RES
1 *174:X z[5] 5.86677 
*END

*D_NET *17 0.000878828
*CONN
*P z[6] O
*I *175:X O *D sky130_fd_sc_hd__buf_2
*CAP
1 z[6] 0.000439414
2 *175:X 0.000439414
3 z[6] z[7] 0
4 z[5] z[6] 0
*RES
1 *175:X z[6] 5.25463 
*END

*D_NET *18 0.000971234
*CONN
*P z[7] O
*I *176:X O *D sky130_fd_sc_hd__clkbuf_4
*CAP
1 z[7] 0.000485617
2 *176:X 0.000485617
3 z[6] z[7] 0
*RES
1 *176:X z[7] 10.1435 
*END

*D_NET *19 0.00683793
*CONN
*I *150:A3 I *D sky130_fd_sc_hd__o31a_1
*I *151:D I *D sky130_fd_sc_hd__or4_1
*I *147:B I *D sky130_fd_sc_hd__and2_1
*I *146:B I *D sky130_fd_sc_hd__nor2_1
*I *160:B1_N I *D sky130_fd_sc_hd__a21boi_1
*I *145:X O *D sky130_fd_sc_hd__or4_2
*CAP
1 *150:A3 2.63602e-05
2 *151:D 0.000184117
3 *147:B 3.55506e-05
4 *146:B 3.03538e-05
5 *160:B1_N 0.0001666
6 *145:X 4.78064e-05
7 *19:51 0.000448169
8 *19:18 0.000242259
9 *19:14 0.000745168
10 *19:8 0.00094981
11 *146:B *20:8 5.83121e-06
12 *146:B *40:8 1.19928e-05
13 *150:A3 *159:A 3.66286e-05
14 *151:D *151:A 0.000342698
15 *151:D *151:B 2.65814e-06
16 *151:D *177:A 0.000296782
17 *160:B1_N *146:A 9.50342e-06
18 *160:B1_N *154:A 0.000163019
19 *19:14 *148:B 0.000953039
20 *19:14 *154:B 0.00026898
21 *19:14 *160:A2 0.000131874
22 *19:14 *172:A 0.000512738
23 *19:18 *146:A 0.000154481
24 *19:18 *154:A 0.000160658
25 *19:51 *154:B 0.000448916
26 *19:51 *159:A 8.40269e-05
27 *19:51 *172:A 0.000222061
28 *19:51 *37:10 7.97083e-05
29 *19:51 *37:21 1.34361e-05
30 *19:51 *39:32 6.27029e-05
*RES
1 *145:X *19:8 4.05 
2 *19:8 *19:14 17.39 
3 *19:14 *19:18 3.89 
4 *19:18 *160:B1_N 6.63 
5 *19:18 *146:B 4.05 
6 *19:14 *147:B 2.215 
7 *19:8 *19:51 9.035 
8 *19:51 *151:D 10.505 
9 *19:51 *150:A3 2.05 
*END

*D_NET *20 0.00258341
*CONN
*I *148:A I *D sky130_fd_sc_hd__nor2_1
*I *149:B I *D sky130_fd_sc_hd__xnor2_1
*I *146:Y O *D sky130_fd_sc_hd__nor2_1
*CAP
1 *148:A 0.000237448
2 *149:B 0.000129653
3 *146:Y 0.000246802
4 *20:8 0.000613903
5 *148:A *148:B 0.000349592
6 *148:A *160:A1 0.000149071
7 *148:A *172:A 0
8 *149:B *160:A1 0.000163012
9 *149:B *160:A2 0
10 *149:B *172:A 0
11 *20:8 *40:8 0.000688097
12 *146:B *20:8 5.83121e-06
*RES
1 *146:Y *20:8 9.915 
2 *20:8 *149:B 6.255 
3 *20:8 *148:A 8.7 
*END

*D_NET *21 0.00205566
*CONN
*I *148:B I *D sky130_fd_sc_hd__nor2_1
*I *147:X O *D sky130_fd_sc_hd__and2_1
*CAP
1 *148:B 0.000367322
2 *147:X 0.000367322
3 *148:B *173:A 1.83847e-05
4 *148:A *148:B 0.000349592
5 *19:14 *148:B 0.000953039
*RES
1 *147:X *148:B 13.325 
*END

*D_NET *22 0.00134636
*CONN
*I *152:A_N I *D sky130_fd_sc_hd__and2b_1
*I *150:X O *D sky130_fd_sc_hd__o31a_1
*CAP
1 *152:A_N 0.000160875
2 *150:X 0.000160875
3 *152:A_N *152:B 0.000211083
4 *152:A_N *154:B 0.000296081
5 *152:A_N *159:A 0.000517447
*RES
1 *150:X *152:A_N 13.62 
*END

*D_NET *23 0.0041858
*CONN
*I *152:B I *D sky130_fd_sc_hd__and2b_1
*I *154:B I *D sky130_fd_sc_hd__xor2_1
*I *151:X O *D sky130_fd_sc_hd__or4_1
*CAP
1 *152:B 0.000215335
2 *154:B 0.000682578
3 *151:X 0.000119243
4 *23:8 0.00101716
5 *154:B *151:A 8.09021e-06
6 *154:B *160:A2 0.000448895
7 *154:B *176:A 0.000463611
8 *154:B *177:A 0
9 *154:B *37:10 0
10 *154:B *40:23 0
11 *23:8 *151:A 5.83121e-06
12 *152:A_N *152:B 0.000211083
13 *152:A_N *154:B 0.000296081
14 *19:14 *154:B 0.00026898
15 *19:51 *154:B 0.000448916
*RES
1 *151:X *23:8 4.74 
2 *23:8 *154:B 20.565 
3 *23:8 *152:B 7.245 
*END

*D_NET *24 0.00279293
*CONN
*I *153:A I *D sky130_fd_sc_hd__clkbuf_1
*I *152:X O *D sky130_fd_sc_hd__and2b_1
*CAP
1 *153:A 0.000659341
2 *152:X 0.000659341
3 *153:A *151:B 0.000259939
4 *153:A *151:C 0.000204603
5 *153:A *158:B 0.000228753
6 *153:A *171:A 0.000162318
7 *153:A *173:A 0.000321522
8 *153:A *174:A 9.50342e-06
9 *153:A *176:A 0.000185398
10 *153:A *177:A 0.000102216
11 *153:A *40:23 0
12 *153:A *41:18 0
*RES
1 *152:X *153:A 24.255 
*END

*D_NET *25 0.00474583
*CONN
*I *158:A I *D sky130_fd_sc_hd__and2_1
*I *160:A2 I *D sky130_fd_sc_hd__a21boi_1
*I *156:X O *D sky130_fd_sc_hd__or3_1
*CAP
1 *158:A 0.00050282
2 *160:A2 0.000828741
3 *156:X 7.03287e-05
4 *25:6 0.00140189
5 *158:A *158:B 2.04294e-05
6 *158:A *172:A 0.000181005
7 *158:A *41:18 0.000183943
8 *160:A2 *149:A 0.000350642
9 *160:A2 *172:A 0.000269546
10 *160:A2 *175:A 0
11 *160:A2 *40:23 0.000311568
12 *25:6 *172:A 4.41506e-05
13 *149:B *160:A2 0
14 *154:B *160:A2 0.000448895
15 *19:14 *160:A2 0.000131874
*RES
1 *156:X *25:6 2.395 
2 *25:6 *160:A2 25.655 
3 *25:6 *158:A 13.055 
*END

*D_NET *26 0.00165298
*CONN
*I *158:B I *D sky130_fd_sc_hd__and2_1
*I *157:Y O *D sky130_fd_sc_hd__o21ai_1
*CAP
1 *158:B 0.000544851
2 *157:Y 0.000544851
3 *158:B *151:B 5.16418e-05
4 *158:B *157:B1 3.64998e-06
5 *158:B *41:18 0.000214685
6 z[3] *158:B 4.4123e-05
7 *153:A *158:B 0.000228753
8 *158:A *158:B 2.04294e-05
*RES
1 *157:Y *158:B 16.56 
*END

*D_NET *27 0.00189575
*CONN
*I *159:A I *D sky130_fd_sc_hd__clkbuf_1
*I *158:X O *D sky130_fd_sc_hd__and2_1
*CAP
1 *159:A 0.000324257
2 *158:X 0.000324257
3 *159:A *151:A 0.000339886
4 *159:A *151:B 2.54522e-05
5 *159:A *177:A 0.000144965
6 *159:A *39:32 4.82863e-05
7 *159:A *41:18 5.05437e-05
8 *150:A3 *159:A 3.66286e-05
9 *152:A_N *159:A 0.000517447
10 *19:51 *159:A 8.40269e-05
*RES
1 *158:X *159:A 17.385 
*END

*D_NET *28 0.00597628
*CONN
*I *161:A I *D sky130_fd_sc_hd__clkbuf_1
*I *156:C I *D sky130_fd_sc_hd__or3_1
*I *155:B I *D sky130_fd_sc_hd__xor2_1
*I *145:D I *D sky130_fd_sc_hd__or4_2
*I *157:A2 I *D sky130_fd_sc_hd__o21ai_1
*I *162:X O *D sky130_fd_sc_hd__dlymetal6s2s_1
*CAP
1 *161:A 0.000311952
2 *156:C 0
3 *155:B 4.62768e-05
4 *145:D 0
5 *157:A2 0.000140794
6 *162:X 0.000618024
7 *28:49 0.000483758
8 *28:18 0.000377633
9 *28:12 0.000340373
10 *28:10 0.000847089
11 *155:B *155:A 4.77719e-05
12 *157:A2 *157:A1 0.000158324
13 *157:A2 *157:B1 9.67653e-05
14 *157:A2 *160:A1 0
15 *157:A2 *172:A 1.82563e-05
16 *161:A *172:A 0.000230196
17 *161:A *177:A 4.99619e-05
18 *28:10 *170:A 0.000854218
19 *28:10 *36:10 0.000664786
20 *28:12 *155:A 0.000108322
21 *28:12 *170:A 0.000139238
22 *28:12 *36:10 7.70828e-05
23 *28:12 *38:10 0
24 *28:18 *145:A 0.000197264
25 *28:18 *155:A 2.92496e-05
26 *28:18 *160:A1 0
27 *28:18 *38:10 0
28 *28:49 *156:B 1.83847e-05
29 *28:49 *36:25 0.000120562
*RES
1 *162:X *28:10 18.93 
2 *28:10 *28:12 2.145 
3 *28:12 *28:18 5.825 
4 *28:18 *157:A2 8.795 
5 *28:18 *145:D 1.6 
6 *28:12 *155:B 4.395 
7 *28:10 *28:49 5.21 
8 *28:49 *156:C 1.6 
9 *28:49 *161:A 6.91 
*END

*D_NET *29 0.00319354
*CONN
*I *170:A I *D sky130_fd_sc_hd__buf_2
*I *155:X O *D sky130_fd_sc_hd__xor2_1
*CAP
1 *170:A 0.000952461
2 *155:X 0.000952461
3 *170:A *171:A 0.000198939
4 *170:A *37:10 0
5 *170:A *38:10 9.6227e-05
6 *28:10 *170:A 0.000854218
7 *28:12 *170:A 0.000139238
*RES
1 *155:X *170:A 26.58 
*END

*D_NET *30 0.00105007
*CONN
*I *171:A I *D sky130_fd_sc_hd__buf_2
*I *159:X O *D sky130_fd_sc_hd__clkbuf_1
*CAP
1 *171:A 0.000305869
2 *159:X 0.000305869
3 *171:A *151:B 7.70758e-05
4 *171:A *177:A 0
5 *153:A *171:A 0.000162318
6 *170:A *171:A 0.000198939
*RES
1 *159:X *171:A 12.705 
*END

*D_NET *31 0.00435904
*CONN
*I *172:A I *D sky130_fd_sc_hd__buf_2
*I *160:Y O *D sky130_fd_sc_hd__a21boi_1
*CAP
1 *172:A 0.00079884
2 *160:Y 0.00079884
3 *172:A *149:A 0.000315527
4 *172:A *157:B1 0.000208491
5 *172:A *160:A1 0.000429839
6 *172:A *174:A 0.000163199
7 *172:A *37:21 0.000166346
8 *148:A *172:A 0
9 *149:B *172:A 0
10 *157:A2 *172:A 1.82563e-05
11 *158:A *172:A 0.000181005
12 *160:A2 *172:A 0.000269546
13 *161:A *172:A 0.000230196
14 *19:14 *172:A 0.000512738
15 *19:51 *172:A 0.000222061
16 *25:6 *172:A 4.41506e-05
*RES
1 *160:Y *172:A 30.66 
*END

*D_NET *32 0.00120644
*CONN
*I *173:A I *D sky130_fd_sc_hd__buf_2
*I *148:Y O *D sky130_fd_sc_hd__nor2_1
*CAP
1 *173:A 0.000365428
2 *148:Y 0.000365428
3 *173:A *41:18 0.000123962
4 z[4] *173:A 1.17114e-05
5 *148:B *173:A 1.83847e-05
6 *153:A *173:A 0.000321522
*RES
1 *148:Y *173:A 13.74 
*END

*D_NET *33 0.00169014
*CONN
*I *174:A I *D sky130_fd_sc_hd__buf_2
*I *149:Y O *D sky130_fd_sc_hd__xnor2_1
*CAP
1 *174:A 0.000530371
2 *149:Y 0.000530371
3 *174:A *149:A 0.000131791
4 *174:A *176:A 0.00017562
5 *174:A *41:18 8.85956e-05
6 z[5] *174:A 6.06899e-05
7 *153:A *174:A 9.50342e-06
8 *172:A *174:A 0.000163199
*RES
1 *149:Y *174:A 16.155 
*END

*D_NET *34 0.00102751
*CONN
*I *175:A I *D sky130_fd_sc_hd__buf_2
*I *153:X O *D sky130_fd_sc_hd__clkbuf_1
*CAP
1 *175:A 0.000181133
2 *153:X 0.000181133
3 *175:A *149:A 0.00012819
4 *175:A *176:A 0.000498395
5 *175:A *40:23 3.86607e-05
6 *160:A2 *175:A 0
*RES
1 *153:X *175:A 12.915 
*END

*D_NET *35 0.00271638
*CONN
*I *176:A I *D sky130_fd_sc_hd__clkbuf_4
*I *154:X O *D sky130_fd_sc_hd__xor2_1
*CAP
1 *176:A 0.000632473
2 *154:X 0.000632473
3 *176:A *40:23 0.000100892
4 *176:A *41:18 2.75229e-05
5 *153:A *176:A 0.000185398
6 *154:B *176:A 0.000463611
7 *174:A *176:A 0.00017562
8 *175:A *176:A 0.000498395
*RES
1 *154:X *176:A 22.83 
*END

*D_NET *36 0.00419876
*CONN
*I *156:B I *D sky130_fd_sc_hd__or3_1
*I *145:C I *D sky130_fd_sc_hd__or4_2
*I *157:A1 I *D sky130_fd_sc_hd__o21ai_1
*I *155:A I *D sky130_fd_sc_hd__xor2_1
*I *163:X O *D sky130_fd_sc_hd__buf_1
*CAP
1 *156:B 3.01888e-05
2 *145:C 3.63983e-05
3 *157:A1 0.000154157
4 *155:A 0.000124164
5 *163:X 0.000733643
6 *36:29 0.000258161
7 *36:25 0.000365788
8 *36:10 0.0011258
9 *145:C *145:A 8.65961e-05
10 *157:A1 *157:B1 1.44259e-05
11 *157:A1 *160:A1 0
12 *157:A1 *38:10 0
13 *36:29 *157:B1 2.97004e-06
14 *36:29 *37:21 4.19797e-05
15 *36:29 *38:10 0
16 *155:B *155:A 4.77719e-05
17 *157:A2 *157:A1 0.000158324
18 *28:10 *36:10 0.000664786
19 *28:12 *155:A 0.000108322
20 *28:12 *36:10 7.70828e-05
21 *28:18 *155:A 2.92496e-05
22 *28:49 *156:B 1.83847e-05
23 *28:49 *36:25 0.000120562
*RES
1 *163:X *36:10 17.4 
2 *36:10 *155:A 6.03 
3 *36:10 *36:25 5.21 
4 *36:25 *36:29 3.38 
5 *36:29 *157:A1 6.54 
6 *36:29 *145:C 4.395 
7 *36:25 *156:B 2.05 
*END

*D_NET *37 0.00349922
*CONN
*I *145:B I *D sky130_fd_sc_hd__or4_2
*I *157:B1 I *D sky130_fd_sc_hd__o21ai_1
*I *156:A I *D sky130_fd_sc_hd__or3_1
*I *164:X O *D sky130_fd_sc_hd__buf_1
*CAP
1 *145:B 3.55506e-05
2 *157:B1 0.000131853
3 *156:A 0
4 *164:X 0.00115959
5 *37:21 0.000276134
6 *37:10 0.00126832
7 *37:10 *38:10 0
8 *37:21 *38:10 0
9 *154:B *37:10 0
10 *157:A1 *157:B1 1.44259e-05
11 *157:A2 *157:B1 9.67653e-05
12 *158:B *157:B1 3.64998e-06
13 *170:A *37:10 0
14 *172:A *157:B1 0.000208491
15 *172:A *37:21 0.000166346
16 *19:51 *37:10 7.97083e-05
17 *19:51 *37:21 1.34361e-05
18 *36:29 *157:B1 2.97004e-06
19 *36:29 *37:21 4.19797e-05
*RES
1 *164:X *37:10 18.135 
2 *37:10 *156:A 3.6 
3 *37:10 *37:21 2.595 
4 *37:21 *157:B1 6.795 
5 *37:21 *145:B 4.215 
*END

*D_NET *38 0.00490993
*CONN
*I *145:A I *D sky130_fd_sc_hd__or4_2
*I *160:A1 I *D sky130_fd_sc_hd__a21boi_1
*I *165:X O *D sky130_fd_sc_hd__clkbuf_1
*CAP
1 *145:A 0.000141416
2 *160:A1 0.000801237
3 *165:X 0.000743653
4 *38:10 0.00168631
5 *38:10 *39:32 0.000415306
6 *145:C *145:A 8.65961e-05
7 *148:A *160:A1 0.000149071
8 *149:B *160:A1 0.000163012
9 *157:A1 *160:A1 0
10 *157:A1 *38:10 0
11 *157:A2 *160:A1 0
12 *170:A *38:10 9.6227e-05
13 *172:A *160:A1 0.000429839
14 *28:12 *38:10 0
15 *28:18 *145:A 0.000197264
16 *28:18 *160:A1 0
17 *28:18 *38:10 0
18 *36:29 *38:10 0
19 *37:10 *38:10 0
20 *37:21 *38:10 0
*RES
1 *165:X *38:10 14.28 
2 *38:10 *160:A1 17.04 
3 *38:10 *145:A 6.465 
*END

*D_NET *39 0.00447785
*CONN
*I *150:A1 I *D sky130_fd_sc_hd__o31a_1
*I *151:A I *D sky130_fd_sc_hd__or4_1
*I *147:A I *D sky130_fd_sc_hd__and2_1
*I *146:A I *D sky130_fd_sc_hd__nor2_1
*I *166:X O *D sky130_fd_sc_hd__buf_1
*CAP
1 *150:A1 0
2 *151:A 0.000145296
3 *147:A 0
4 *146:A 9.83086e-05
5 *166:X 4.43494e-05
6 *39:32 0.00107574
7 *39:10 0.000348309
8 *39:8 0.00122479
9 *146:A *154:A 2.68721e-05
10 *151:A *177:A 3.31204e-05
11 *39:10 *154:A 9.428e-05
12 *151:D *151:A 0.000342698
13 *154:B *151:A 8.09021e-06
14 *159:A *151:A 0.000339886
15 *159:A *39:32 4.82863e-05
16 *160:B1_N *146:A 9.50342e-06
17 *165:A *39:32 0
18 *166:A *39:10 0
19 *19:18 *146:A 0.000154481
20 *19:51 *39:32 6.27029e-05
21 *23:8 *151:A 5.83121e-06
22 *38:10 *39:32 0.000415306
*RES
1 *166:X *39:8 4.05 
2 *39:8 *39:10 4.695 
3 *39:10 *146:A 6 
4 *39:10 *147:A 3.6 
5 *39:8 *39:32 18.605 
6 *39:32 *151:A 10.58 
7 *39:32 *150:A1 1.6 
*END

*D_NET *40 0.00702883
*CONN
*I *151:B I *D sky130_fd_sc_hd__or4_1
*I *150:A2 I *D sky130_fd_sc_hd__o31a_1
*I *149:A I *D sky130_fd_sc_hd__xnor2_1
*I *167:X O *D sky130_fd_sc_hd__buf_1
*CAP
1 *151:B 0.00046576
2 *150:A2 2.89361e-05
3 *149:A 0.000198938
4 *167:X 0.000969506
5 *40:23 0.000982002
6 *40:8 0.00165575
7 *150:A2 *41:18 1.85674e-05
8 *151:B *41:18 0.000122325
9 *40:23 *177:A 7.23533e-05
10 z[2] *151:B 2.05641e-05
11 *146:B *40:8 1.19928e-05
12 *151:D *151:B 2.65814e-06
13 *153:A *151:B 0.000259939
14 *153:A *40:23 0
15 *154:B *40:23 0
16 *158:B *151:B 5.16418e-05
17 *159:A *151:B 2.54522e-05
18 *160:A2 *149:A 0.000350642
19 *160:A2 *40:23 0.000311568
20 *171:A *151:B 7.70758e-05
21 *172:A *149:A 0.000315527
22 *174:A *149:A 0.000131791
23 *175:A *149:A 0.00012819
24 *175:A *40:23 3.86607e-05
25 *176:A *40:23 0.000100892
26 *20:8 *40:8 0.000688097
*RES
1 *167:X *40:8 15.435 
2 *40:8 *149:A 11.19 
3 *40:8 *40:23 13.07 
4 *40:23 *150:A2 2.215 
5 *40:23 *151:B 14.24 
*END

*D_NET *41 0.00561569
*CONN
*I *150:B1 I *D sky130_fd_sc_hd__o31a_1
*I *151:C I *D sky130_fd_sc_hd__or4_1
*I *168:X O *D sky130_fd_sc_hd__buf_1
*CAP
1 *150:B1 0
2 *151:C 0.000102713
3 *168:X 0.00192394
4 *41:18 0.00202666
5 *151:C *177:A 0.000360604
6 z[3] *41:18 4.18203e-05
7 z[4] *41:18 1.88656e-05
8 z[5] *41:18 0.000106344
9 *150:A2 *41:18 1.85674e-05
10 *151:B *41:18 0.000122325
11 *153:A *151:C 0.000204603
12 *153:A *41:18 0
13 *158:A *41:18 0.000183943
14 *158:B *41:18 0.000214685
15 *159:A *41:18 5.05437e-05
16 *173:A *41:18 0.000123962
17 *174:A *41:18 8.85956e-05
18 *176:A *41:18 2.75229e-05
*RES
1 *168:X *41:18 38.495 
2 *41:18 *151:C 9.785 
3 *41:18 *150:B1 1.6 
*END

*D_NET *42 0.00174192
*CONN
*I *154:A I *D sky130_fd_sc_hd__xor2_1
*I *169:X O *D sky130_fd_sc_hd__clkbuf_1
*CAP
1 *154:A 0.000648547
2 *169:X 0.000648547
3 *146:A *154:A 2.68721e-05
4 *160:B1_N *154:A 0.000163019
5 *19:18 *154:A 0.000160658
6 *39:10 *154:A 9.428e-05
*RES
1 *169:X *154:A 18.6 
*END

*D_NET *43 0.00179328
*CONN
*I *177:A I *D sky130_fd_sc_hd__buf_2
*I *161:X O *D sky130_fd_sc_hd__clkbuf_1
*CAP
1 *177:A 0.000366637
2 *161:X 0.000366637
3 *151:A *177:A 3.31204e-05
4 *151:C *177:A 0.000360604
5 *151:D *177:A 0.000296782
6 *153:A *177:A 0.000102216
7 *154:B *177:A 0
8 *159:A *177:A 0.000144965
9 *161:A *177:A 4.99619e-05
10 *171:A *177:A 0
11 *40:23 *177:A 7.23533e-05
*RES
1 *161:X *177:A 17.19 
*END
