*SPEF "ieee 1481-1999"
*DESIGN "topmodule"
*DATE "14:48:58 Saturday May 31, 2025"
*VENDOR "The OpenROAD Project"
*PROGRAM "OpenROAD"
*VERSION "b16bda7e82721d10566ff7e2b68f1ff0be9f9e38"
*DESIGN_FLOW "NAME_SCOPE LOCAL" "PIN_CAP NONE"
*DIVIDER /
*DELIMITER :
*BUS_DELIMITER []
*T_UNIT 1 NS
*C_UNIT 1 PF
*R_UNIT 1 OHM
*L_UNIT 1 HENRY

*NAME_MAP
*1 A1[0]
*2 A1[1]
*3 A1[2]
*4 A1[3]
*5 A1[4]
*6 A2[0]
*7 A2[1]
*8 A2[2]
*9 A2[3]
*10 A2[4]
*11 A3[0]
*12 A3[1]
*13 A3[2]
*14 A3[3]
*15 A3[4]
*16 RD1[0]
*17 RD1[1]
*18 RD1[2]
*19 RD1[3]
*20 RD2[0]
*21 RD2[1]
*22 RD2[2]
*23 RD2[3]
*26 WD3[0]
*27 WD3[1]
*28 WD3[2]
*29 WD3[3]
*30 WE3
*31 clk
*32 inputA[0]
*33 inputA[1]
*34 inputA[2]
*35 inputA[3]
*36 inputB[0]
*37 inputB[1]
*38 inputB[2]
*39 inputB[3]
*40 opcode[0]
*41 opcode[1]
*42 outputC[0]
*43 outputC[1]
*44 outputC[2]
*45 outputC[3]
*46 Module1\.outputC\[0\]
*47 Module1\.outputC\[1\]
*48 Module1\.outputC\[2\]
*49 Module1\.outputC\[3\]
*50 Module2\.RegisterFile\[0\]\[0\]
*51 Module2\.RegisterFile\[0\]\[1\]
*52 Module2\.RegisterFile\[0\]\[2\]
*53 Module2\.RegisterFile\[0\]\[3\]
*54 Module2\.RegisterFile\[10\]\[0\]
*55 Module2\.RegisterFile\[10\]\[1\]
*56 Module2\.RegisterFile\[10\]\[2\]
*57 Module2\.RegisterFile\[10\]\[3\]
*58 Module2\.RegisterFile\[11\]\[0\]
*59 Module2\.RegisterFile\[11\]\[1\]
*60 Module2\.RegisterFile\[11\]\[2\]
*61 Module2\.RegisterFile\[11\]\[3\]
*62 Module2\.RegisterFile\[12\]\[0\]
*63 Module2\.RegisterFile\[12\]\[1\]
*64 Module2\.RegisterFile\[12\]\[2\]
*65 Module2\.RegisterFile\[12\]\[3\]
*66 Module2\.RegisterFile\[13\]\[0\]
*67 Module2\.RegisterFile\[13\]\[1\]
*68 Module2\.RegisterFile\[13\]\[2\]
*69 Module2\.RegisterFile\[13\]\[3\]
*70 Module2\.RegisterFile\[14\]\[0\]
*71 Module2\.RegisterFile\[14\]\[1\]
*72 Module2\.RegisterFile\[14\]\[2\]
*73 Module2\.RegisterFile\[14\]\[3\]
*74 Module2\.RegisterFile\[15\]\[0\]
*75 Module2\.RegisterFile\[15\]\[1\]
*76 Module2\.RegisterFile\[15\]\[2\]
*77 Module2\.RegisterFile\[15\]\[3\]
*78 Module2\.RegisterFile\[16\]\[0\]
*79 Module2\.RegisterFile\[16\]\[1\]
*80 Module2\.RegisterFile\[16\]\[2\]
*81 Module2\.RegisterFile\[16\]\[3\]
*82 Module2\.RegisterFile\[17\]\[0\]
*83 Module2\.RegisterFile\[17\]\[1\]
*84 Module2\.RegisterFile\[17\]\[2\]
*85 Module2\.RegisterFile\[17\]\[3\]
*86 Module2\.RegisterFile\[18\]\[0\]
*87 Module2\.RegisterFile\[18\]\[1\]
*88 Module2\.RegisterFile\[18\]\[2\]
*89 Module2\.RegisterFile\[18\]\[3\]
*90 Module2\.RegisterFile\[19\]\[0\]
*91 Module2\.RegisterFile\[19\]\[1\]
*92 Module2\.RegisterFile\[19\]\[2\]
*93 Module2\.RegisterFile\[19\]\[3\]
*94 Module2\.RegisterFile\[1\]\[0\]
*95 Module2\.RegisterFile\[1\]\[1\]
*96 Module2\.RegisterFile\[1\]\[2\]
*97 Module2\.RegisterFile\[1\]\[3\]
*98 Module2\.RegisterFile\[20\]\[0\]
*99 Module2\.RegisterFile\[20\]\[1\]
*100 Module2\.RegisterFile\[20\]\[2\]
*101 Module2\.RegisterFile\[20\]\[3\]
*102 Module2\.RegisterFile\[21\]\[0\]
*103 Module2\.RegisterFile\[21\]\[1\]
*104 Module2\.RegisterFile\[21\]\[2\]
*105 Module2\.RegisterFile\[21\]\[3\]
*106 Module2\.RegisterFile\[22\]\[0\]
*107 Module2\.RegisterFile\[22\]\[1\]
*108 Module2\.RegisterFile\[22\]\[2\]
*109 Module2\.RegisterFile\[22\]\[3\]
*110 Module2\.RegisterFile\[23\]\[0\]
*111 Module2\.RegisterFile\[23\]\[1\]
*112 Module2\.RegisterFile\[23\]\[2\]
*113 Module2\.RegisterFile\[23\]\[3\]
*114 Module2\.RegisterFile\[24\]\[0\]
*115 Module2\.RegisterFile\[24\]\[1\]
*116 Module2\.RegisterFile\[24\]\[2\]
*117 Module2\.RegisterFile\[24\]\[3\]
*118 Module2\.RegisterFile\[25\]\[0\]
*119 Module2\.RegisterFile\[25\]\[1\]
*120 Module2\.RegisterFile\[25\]\[2\]
*121 Module2\.RegisterFile\[25\]\[3\]
*122 Module2\.RegisterFile\[26\]\[0\]
*123 Module2\.RegisterFile\[26\]\[1\]
*124 Module2\.RegisterFile\[26\]\[2\]
*125 Module2\.RegisterFile\[26\]\[3\]
*126 Module2\.RegisterFile\[27\]\[0\]
*127 Module2\.RegisterFile\[27\]\[1\]
*128 Module2\.RegisterFile\[27\]\[2\]
*129 Module2\.RegisterFile\[27\]\[3\]
*130 Module2\.RegisterFile\[28\]\[0\]
*131 Module2\.RegisterFile\[28\]\[1\]
*132 Module2\.RegisterFile\[28\]\[2\]
*133 Module2\.RegisterFile\[28\]\[3\]
*134 Module2\.RegisterFile\[29\]\[0\]
*135 Module2\.RegisterFile\[29\]\[1\]
*136 Module2\.RegisterFile\[29\]\[2\]
*137 Module2\.RegisterFile\[29\]\[3\]
*138 Module2\.RegisterFile\[2\]\[0\]
*139 Module2\.RegisterFile\[2\]\[1\]
*140 Module2\.RegisterFile\[2\]\[2\]
*141 Module2\.RegisterFile\[2\]\[3\]
*142 Module2\.RegisterFile\[30\]\[0\]
*143 Module2\.RegisterFile\[30\]\[1\]
*144 Module2\.RegisterFile\[30\]\[2\]
*145 Module2\.RegisterFile\[30\]\[3\]
*146 Module2\.RegisterFile\[31\]\[0\]
*147 Module2\.RegisterFile\[31\]\[1\]
*148 Module2\.RegisterFile\[31\]\[2\]
*149 Module2\.RegisterFile\[31\]\[3\]
*150 Module2\.RegisterFile\[3\]\[0\]
*151 Module2\.RegisterFile\[3\]\[1\]
*152 Module2\.RegisterFile\[3\]\[2\]
*153 Module2\.RegisterFile\[3\]\[3\]
*154 Module2\.RegisterFile\[4\]\[0\]
*155 Module2\.RegisterFile\[4\]\[1\]
*156 Module2\.RegisterFile\[4\]\[2\]
*157 Module2\.RegisterFile\[4\]\[3\]
*158 Module2\.RegisterFile\[5\]\[0\]
*159 Module2\.RegisterFile\[5\]\[1\]
*160 Module2\.RegisterFile\[5\]\[2\]
*161 Module2\.RegisterFile\[5\]\[3\]
*162 Module2\.RegisterFile\[6\]\[0\]
*163 Module2\.RegisterFile\[6\]\[1\]
*164 Module2\.RegisterFile\[6\]\[2\]
*165 Module2\.RegisterFile\[6\]\[3\]
*166 Module2\.RegisterFile\[7\]\[0\]
*167 Module2\.RegisterFile\[7\]\[1\]
*168 Module2\.RegisterFile\[7\]\[2\]
*169 Module2\.RegisterFile\[7\]\[3\]
*170 Module2\.RegisterFile\[8\]\[0\]
*171 Module2\.RegisterFile\[8\]\[1\]
*172 Module2\.RegisterFile\[8\]\[2\]
*173 Module2\.RegisterFile\[8\]\[3\]
*174 Module2\.RegisterFile\[9\]\[0\]
*175 Module2\.RegisterFile\[9\]\[1\]
*176 Module2\.RegisterFile\[9\]\[2\]
*177 Module2\.RegisterFile\[9\]\[3\]
*178 _0000_
*179 _0001_
*180 _0002_
*181 _0003_
*182 _0004_
*183 _0005_
*184 _0006_
*185 _0007_
*186 _0008_
*187 _0009_
*188 _0010_
*189 _0011_
*190 _0012_
*191 _0013_
*192 _0014_
*193 _0015_
*194 _0016_
*195 _0017_
*196 _0018_
*197 _0019_
*198 _0020_
*199 _0021_
*200 _0022_
*201 _0023_
*202 _0024_
*203 _0025_
*204 _0026_
*205 _0027_
*206 _0028_
*207 _0029_
*208 _0030_
*209 _0031_
*210 _0032_
*211 _0033_
*212 _0034_
*213 _0035_
*214 _0036_
*215 _0037_
*216 _0038_
*217 _0039_
*218 _0040_
*219 _0041_
*220 _0042_
*221 _0043_
*222 _0044_
*223 _0045_
*224 _0046_
*225 _0047_
*226 _0048_
*227 _0049_
*228 _0050_
*229 _0051_
*230 _0052_
*231 _0053_
*232 _0054_
*233 _0055_
*234 _0056_
*235 _0057_
*236 _0058_
*237 _0059_
*238 _0060_
*239 _0061_
*240 _0062_
*241 _0063_
*242 _0064_
*243 _0065_
*244 _0066_
*245 _0067_
*246 _0068_
*247 _0069_
*248 _0070_
*249 _0071_
*250 _0072_
*251 _0073_
*252 _0074_
*253 _0075_
*254 _0076_
*255 _0077_
*256 _0078_
*257 _0079_
*258 _0080_
*259 _0081_
*260 _0082_
*261 _0083_
*262 _0084_
*263 _0085_
*264 _0086_
*265 _0087_
*266 _0088_
*267 _0089_
*268 _0090_
*269 _0091_
*270 _0092_
*271 _0093_
*272 _0094_
*273 _0095_
*274 _0096_
*275 _0097_
*276 _0098_
*277 _0099_
*278 _0100_
*279 _0101_
*280 _0102_
*281 _0103_
*282 _0104_
*283 _0105_
*284 _0106_
*285 _0107_
*286 _0108_
*287 _0109_
*288 _0110_
*289 _0111_
*290 _0112_
*291 _0113_
*292 _0114_
*293 _0115_
*294 _0116_
*295 _0117_
*296 _0118_
*297 _0119_
*298 _0120_
*299 _0121_
*300 _0122_
*301 _0123_
*302 _0124_
*303 _0125_
*304 _0126_
*305 _0127_
*306 _0128_
*307 _0129_
*308 _0130_
*309 _0131_
*310 _0132_
*311 _0133_
*312 _0134_
*313 _0135_
*314 _0136_
*315 _0137_
*316 _0138_
*317 _0139_
*318 _0140_
*319 _0141_
*320 _0142_
*321 _0143_
*322 _0144_
*323 _0145_
*324 _0146_
*325 _0147_
*326 _0148_
*327 _0149_
*328 _0150_
*329 _0151_
*330 _0152_
*331 _0153_
*332 _0154_
*333 _0155_
*334 _0156_
*335 _0157_
*336 _0158_
*337 _0159_
*338 _0160_
*339 _0161_
*340 _0162_
*341 _0163_
*342 _0164_
*343 _0165_
*344 _0166_
*345 _0167_
*346 _0168_
*347 _0169_
*348 _0170_
*349 _0171_
*350 _0172_
*351 _0173_
*352 _0174_
*353 _0175_
*354 _0176_
*355 _0177_
*356 _0178_
*357 _0179_
*358 _0180_
*359 _0181_
*360 _0182_
*361 _0183_
*362 _0184_
*363 _0185_
*364 _0186_
*365 _0187_
*366 _0188_
*367 _0189_
*368 _0190_
*369 _0191_
*370 _0192_
*371 _0193_
*372 _0194_
*373 _0195_
*374 _0196_
*375 _0197_
*376 _0198_
*377 _0199_
*378 _0200_
*379 _0201_
*380 _0202_
*381 _0203_
*382 _0204_
*383 _0205_
*384 _0206_
*385 _0207_
*386 _0208_
*387 _0209_
*388 _0210_
*389 _0211_
*390 _0212_
*391 _0213_
*392 _0214_
*393 _0215_
*394 _0216_
*395 _0217_
*396 _0218_
*397 _0219_
*398 _0220_
*399 _0221_
*400 _0222_
*401 _0223_
*402 _0224_
*403 _0225_
*404 _0226_
*405 _0227_
*406 _0228_
*407 _0229_
*408 _0230_
*409 _0231_
*410 _0232_
*411 _0233_
*412 _0234_
*413 _0235_
*414 _0236_
*415 _0237_
*416 _0238_
*417 _0239_
*418 _0240_
*419 _0241_
*420 _0242_
*421 _0243_
*422 _0244_
*423 _0245_
*424 _0246_
*425 _0247_
*426 _0248_
*427 _0249_
*428 _0250_
*429 _0251_
*430 _0252_
*431 _0253_
*432 _0254_
*433 _0255_
*434 _0256_
*435 _0257_
*436 _0258_
*437 _0259_
*438 _0260_
*439 _0261_
*440 _0262_
*441 _0263_
*442 _0264_
*443 _0265_
*444 _0266_
*445 _0267_
*446 _0268_
*447 _0269_
*448 _0270_
*449 _0271_
*450 _0272_
*451 _0273_
*452 _0274_
*453 _0275_
*454 _0276_
*455 _0277_
*456 _0278_
*457 _0279_
*458 _0280_
*459 _0281_
*460 _0282_
*461 _0283_
*462 _0284_
*463 _0285_
*464 _0286_
*465 _0287_
*466 _0288_
*467 _0289_
*468 _0290_
*469 _0291_
*470 _0292_
*471 _0293_
*472 _0294_
*473 _0295_
*474 _0296_
*475 _0297_
*476 _0298_
*477 _0299_
*478 _0300_
*479 _0301_
*480 _0302_
*481 _0303_
*482 _0304_
*483 _0305_
*484 _0306_
*485 _0307_
*486 _0308_
*487 _0309_
*488 _0310_
*489 _0311_
*490 _0312_
*491 _0313_
*492 _0314_
*493 _0315_
*494 _0316_
*495 _0317_
*496 _0318_
*497 _0319_
*498 _0320_
*499 _0321_
*500 _0322_
*501 _0323_
*502 _0324_
*503 _0325_
*504 _0326_
*505 _0327_
*506 _0328_
*507 _0329_
*508 _0330_
*509 _0331_
*510 _0332_
*511 _0333_
*512 _0334_
*513 _0335_
*514 _0336_
*515 _0337_
*516 _0338_
*517 _0339_
*518 _0340_
*519 _0341_
*520 _0342_
*521 _0343_
*522 _0344_
*523 _0345_
*524 _0346_
*525 _0347_
*526 _0348_
*527 _0349_
*528 _0350_
*529 _0351_
*530 _0352_
*531 _0353_
*532 _0354_
*533 _0355_
*534 _0356_
*535 _0357_
*536 _0358_
*537 _0359_
*538 _0360_
*539 _0361_
*540 _0362_
*541 _0363_
*542 _0364_
*543 _0365_
*544 _0366_
*545 _0367_
*546 _0368_
*547 _0369_
*548 _0370_
*549 _0371_
*550 _0372_
*551 _0373_
*552 _0374_
*553 _0375_
*554 _0376_
*555 _0377_
*556 _0378_
*557 _0379_
*558 _0380_
*559 _0381_
*560 _0382_
*561 _0383_
*562 _0384_
*563 _0385_
*564 _0386_
*565 _0387_
*566 _0388_
*567 _0389_
*568 _0390_
*569 _0391_
*570 _0392_
*571 _0393_
*572 _0394_
*573 _0395_
*574 _0396_
*575 _0397_
*576 _0398_
*577 _0399_
*578 _0400_
*579 _0401_
*580 _0402_
*581 _0403_
*582 _0404_
*583 _0405_
*584 _0406_
*585 _0407_
*586 _0408_
*587 _0409_
*588 _0410_
*589 _0411_
*590 _0412_
*591 _0413_
*592 _0414_
*593 _0415_
*594 _0416_
*595 _0417_
*596 _0418_
*597 _0419_
*598 _0420_
*599 _0421_
*600 _0422_
*601 _0423_
*602 _0424_
*603 _0425_
*604 _0426_
*605 _0427_
*606 _0428_
*607 _0429_
*608 _0430_
*609 _0431_
*610 _0432_
*611 _0433_
*612 _0434_
*613 _0435_
*614 _0436_
*615 _0437_
*616 _0438_
*617 _0439_
*618 _0440_
*619 _0441_
*620 _0442_
*621 _0443_
*622 _0444_
*623 _0445_
*624 _0446_
*625 _0447_
*626 _0448_
*627 _0449_
*628 _0450_
*629 _0451_
*630 _0452_
*631 _0453_
*632 _0454_
*633 _0455_
*634 _0456_
*635 _0457_
*636 _0458_
*637 _0459_
*638 _0460_
*639 _0461_
*640 _0462_
*641 _0463_
*642 _0464_
*643 _0465_
*644 _0466_
*645 _0467_
*646 _0468_
*647 _0469_
*648 _0470_
*649 _0471_
*650 _0472_
*651 _0473_
*652 _0474_
*653 _0475_
*654 _0476_
*655 _0477_
*656 _0478_
*657 _0479_
*658 _0480_
*659 _0481_
*660 _0482_
*661 _0483_
*662 _0484_
*663 _0485_
*664 _0486_
*665 _0487_
*666 _0488_
*667 _0489_
*668 _0490_
*669 _0491_
*670 _0492_
*671 _0493_
*672 _0494_
*673 _0495_
*674 _0496_
*675 _0497_
*676 _0498_
*677 _0499_
*678 _0500_
*679 _0501_
*680 _0502_
*681 _0503_
*682 _0504_
*683 _0505_
*684 _0506_
*685 _0507_
*686 _0508_
*687 _0509_
*688 _0510_
*689 _0511_
*690 _0512_
*691 _0513_
*692 _0514_
*693 _0515_
*694 _0516_
*695 _0517_
*696 _0518_
*697 _0519_
*698 _0520_
*699 _0521_
*700 _0522_
*701 _0523_
*702 _0524_
*703 _0525_
*704 _0526_
*705 _0527_
*706 _0528_
*707 _0529_
*708 _0530_
*709 _0531_
*710 _0532_
*711 _0533_
*712 _0534_
*713 _0535_
*714 _0536_
*715 _0537_
*716 _0538_
*717 _0539_
*718 _0540_
*719 _0541_
*720 _0542_
*721 _0543_
*722 _0544_
*723 _0545_
*724 _0546_
*725 _0547_
*726 _0548_
*727 _0549_
*728 _0550_
*729 _0551_
*730 _0552_
*731 _0553_
*732 _0554_
*733 _0555_
*734 _0556_
*735 _0557_
*736 _0558_
*737 _0559_
*738 _0560_
*739 _0561_
*740 _0562_
*741 _0563_
*742 _0564_
*743 _0565_
*744 _0566_
*745 _0567_
*746 _0568_
*747 _0569_
*748 _0570_
*749 _0571_
*750 _0572_
*751 _0573_
*752 _0574_
*753 _0575_
*754 _0576_
*755 _0577_
*756 _0578_
*757 _0579_
*758 _0580_
*759 _0581_
*760 _0582_
*761 _0583_
*762 _0584_
*763 _0585_
*764 _0586_
*765 _0587_
*766 _0588_
*767 _0589_
*768 _0590_
*769 _0591_
*770 _0592_
*771 _0593_
*772 _0594_
*773 _0595_
*774 _0596_
*775 _0597_
*776 _0598_
*777 _0599_
*778 _0600_
*779 _0601_
*780 _0602_
*781 _0603_
*782 _0604_
*783 _0605_
*784 _0606_
*785 _0607_
*786 _0608_
*787 _0609_
*788 _0610_
*789 _0611_
*790 _0612_
*791 _0613_
*792 _0614_
*793 _0615_
*794 _0616_
*795 _0617_
*796 _0618_
*797 _0619_
*798 _0620_
*799 clknet_0_clk
*800 clknet_3_0_0_clk
*801 clknet_3_1_0_clk
*802 clknet_3_2_0_clk
*803 clknet_3_3_0_clk
*804 clknet_3_4_0_clk
*805 clknet_3_5_0_clk
*806 clknet_3_6_0_clk
*807 clknet_3_7_0_clk
*808 clknet_4_0__leaf_clk
*809 clknet_4_10__leaf_clk
*810 clknet_4_11__leaf_clk
*811 clknet_4_12__leaf_clk
*812 clknet_4_13__leaf_clk
*813 clknet_4_14__leaf_clk
*814 clknet_4_15__leaf_clk
*815 clknet_4_1__leaf_clk
*816 clknet_4_2__leaf_clk
*817 clknet_4_3__leaf_clk
*818 clknet_4_4__leaf_clk
*819 clknet_4_5__leaf_clk
*820 clknet_4_6__leaf_clk
*821 clknet_4_7__leaf_clk
*822 clknet_4_8__leaf_clk
*823 clknet_4_9__leaf_clk
*824 net1
*825 net10
*826 net11
*827 net12
*828 net13
*829 net14
*830 net15
*831 net16
*832 net17
*833 net18
*834 net19
*835 net2
*836 net20
*837 net21
*838 net22
*839 net23
*840 net24
*841 net25
*842 net26
*843 net27
*844 net28
*845 net29
*846 net3
*847 net30
*848 net31
*849 net32
*850 net33
*851 net34
*852 net35
*853 net36
*854 net37
*855 net38
*856 net39
*857 net4
*858 net40
*859 net41
*860 net5
*861 net6
*862 net7
*863 net8
*864 net9
*865 ANTENNA_1
*866 ANTENNA_10
*867 ANTENNA_100
*868 ANTENNA_101
*869 ANTENNA_102
*870 ANTENNA_103
*871 ANTENNA_104
*872 ANTENNA_105
*873 ANTENNA_106
*874 ANTENNA_107
*875 ANTENNA_108
*876 ANTENNA_109
*877 ANTENNA_11
*878 ANTENNA_110
*879 ANTENNA_111
*880 ANTENNA_112
*881 ANTENNA_113
*882 ANTENNA_114
*883 ANTENNA_115
*884 ANTENNA_116
*885 ANTENNA_117
*886 ANTENNA_118
*887 ANTENNA_119
*888 ANTENNA_12
*889 ANTENNA_120
*890 ANTENNA_121
*891 ANTENNA_122
*892 ANTENNA_123
*893 ANTENNA_124
*894 ANTENNA_125
*895 ANTENNA_126
*896 ANTENNA_127
*897 ANTENNA_128
*898 ANTENNA_129
*899 ANTENNA_13
*900 ANTENNA_130
*901 ANTENNA_131
*902 ANTENNA_132
*903 ANTENNA_133
*904 ANTENNA_134
*905 ANTENNA_135
*906 ANTENNA_136
*907 ANTENNA_137
*908 ANTENNA_138
*909 ANTENNA_139
*910 ANTENNA_14
*911 ANTENNA_140
*912 ANTENNA_141
*913 ANTENNA_142
*914 ANTENNA_143
*915 ANTENNA_144
*916 ANTENNA_145
*917 ANTENNA_15
*918 ANTENNA_16
*919 ANTENNA_17
*920 ANTENNA_18
*921 ANTENNA_19
*922 ANTENNA_2
*923 ANTENNA_20
*924 ANTENNA_21
*925 ANTENNA_22
*926 ANTENNA_23
*927 ANTENNA_24
*928 ANTENNA_25
*929 ANTENNA_26
*930 ANTENNA_27
*931 ANTENNA_28
*932 ANTENNA_29
*933 ANTENNA_3
*934 ANTENNA_30
*935 ANTENNA_31
*936 ANTENNA_32
*937 ANTENNA_33
*938 ANTENNA_34
*939 ANTENNA_35
*940 ANTENNA_36
*941 ANTENNA_37
*942 ANTENNA_38
*943 ANTENNA_39
*944 ANTENNA_4
*945 ANTENNA_40
*946 ANTENNA_41
*947 ANTENNA_42
*948 ANTENNA_43
*949 ANTENNA_44
*950 ANTENNA_45
*951 ANTENNA_46
*952 ANTENNA_47
*953 ANTENNA_48
*954 ANTENNA_49
*955 ANTENNA_5
*956 ANTENNA_50
*957 ANTENNA_51
*958 ANTENNA_52
*959 ANTENNA_53
*960 ANTENNA_54
*961 ANTENNA_55
*962 ANTENNA_56
*963 ANTENNA_57
*964 ANTENNA_58
*965 ANTENNA_59
*966 ANTENNA_6
*967 ANTENNA_60
*968 ANTENNA_61
*969 ANTENNA_62
*970 ANTENNA_63
*971 ANTENNA_64
*972 ANTENNA_65
*973 ANTENNA_66
*974 ANTENNA_67
*975 ANTENNA_68
*976 ANTENNA_69
*977 ANTENNA_7
*978 ANTENNA_70
*979 ANTENNA_71
*980 ANTENNA_72
*981 ANTENNA_73
*982 ANTENNA_74
*983 ANTENNA_75
*984 ANTENNA_76
*985 ANTENNA_77
*986 ANTENNA_78
*987 ANTENNA_79
*988 ANTENNA_8
*989 ANTENNA_80
*990 ANTENNA_81
*991 ANTENNA_82
*992 ANTENNA_83
*993 ANTENNA_84
*994 ANTENNA_85
*995 ANTENNA_86
*996 ANTENNA_87
*997 ANTENNA_88
*998 ANTENNA_89
*999 ANTENNA_9
*1000 ANTENNA_90
*1001 ANTENNA_91
*1002 ANTENNA_92
*1003 ANTENNA_93
*1004 ANTENNA_94
*1005 ANTENNA_95
*1006 ANTENNA_96
*1007 ANTENNA_97
*1008 ANTENNA_98
*1009 ANTENNA_99
*1010 FILLER_0_0_109
*1011 FILLER_0_0_113
*1012 FILLER_0_0_125
*1013 FILLER_0_0_137
*1014 FILLER_0_0_15
*1015 FILLER_0_0_161
*1016 FILLER_0_0_167
*1017 FILLER_0_0_169
*1018 FILLER_0_0_181
*1019 FILLER_0_0_193
*1020 FILLER_0_0_197
*1021 FILLER_0_0_209
*1022 FILLER_0_0_221
*1023 FILLER_0_0_225
*1024 FILLER_0_0_251
*1025 FILLER_0_0_253
*1026 FILLER_0_0_259
*1027 FILLER_0_0_266
*1028 FILLER_0_0_27
*1029 FILLER_0_0_278
*1030 FILLER_0_0_281
*1031 FILLER_0_0_29
*1032 FILLER_0_0_293
*1033 FILLER_0_0_3
*1034 FILLER_0_0_305
*1035 FILLER_0_0_309
*1036 FILLER_0_0_321
*1037 FILLER_0_0_333
*1038 FILLER_0_0_357
*1039 FILLER_0_0_363
*1040 FILLER_0_0_365
*1041 FILLER_0_0_377
*1042 FILLER_0_0_389
*1043 FILLER_0_0_39
*1044 FILLER_0_0_393
*1045 FILLER_0_0_405
*1046 FILLER_0_0_417
*1047 FILLER_0_0_421
*1048 FILLER_0_0_435
*1049 FILLER_0_0_44
*1050 FILLER_0_0_447
*1051 FILLER_0_0_449
*1052 FILLER_0_0_461
*1053 FILLER_0_0_473
*1054 FILLER_0_0_477
*1055 FILLER_0_0_489
*1056 FILLER_0_0_501
*1057 FILLER_0_0_505
*1058 FILLER_0_0_531
*1059 FILLER_0_0_533
*1060 FILLER_0_0_545
*1061 FILLER_0_0_557
*1062 FILLER_0_0_561
*1063 FILLER_0_0_573
*1064 FILLER_0_0_585
*1065 FILLER_0_0_589
*1066 FILLER_0_0_601
*1067 FILLER_0_0_613
*1068 FILLER_0_0_617
*1069 FILLER_0_0_633
*1070 FILLER_0_0_641
*1071 FILLER_0_0_645
*1072 FILLER_0_0_657
*1073 FILLER_0_0_669
*1074 FILLER_0_0_673
*1075 FILLER_0_0_685
*1076 FILLER_0_0_697
*1077 FILLER_0_0_701
*1078 FILLER_0_0_720
*1079 FILLER_0_0_729
*1080 FILLER_0_0_73
*1081 FILLER_0_0_733
*1082 FILLER_0_0_736
*1083 FILLER_0_0_740
*1084 FILLER_0_0_752
*1085 FILLER_0_0_757
*1086 FILLER_0_0_769
*1087 FILLER_0_0_781
*1088 FILLER_0_0_785
*1089 FILLER_0_0_797
*1090 FILLER_0_0_809
*1091 FILLER_0_0_81
*1092 FILLER_0_0_825
*1093 FILLER_0_0_837
*1094 FILLER_0_0_841
*1095 FILLER_0_0_85
*1096 FILLER_0_0_97
*1097 FILLER_0_100_109
*1098 FILLER_0_100_117
*1099 FILLER_0_100_121
*1100 FILLER_0_100_125
*1101 FILLER_0_100_136
*1102 FILLER_0_100_141
*1103 FILLER_0_100_145
*1104 FILLER_0_100_15
*1105 FILLER_0_100_157
*1106 FILLER_0_100_169
*1107 FILLER_0_100_181
*1108 FILLER_0_100_193
*1109 FILLER_0_100_197
*1110 FILLER_0_100_209
*1111 FILLER_0_100_221
*1112 FILLER_0_100_233
*1113 FILLER_0_100_245
*1114 FILLER_0_100_251
*1115 FILLER_0_100_253
*1116 FILLER_0_100_261
*1117 FILLER_0_100_264
*1118 FILLER_0_100_268
*1119 FILLER_0_100_27
*1120 FILLER_0_100_281
*1121 FILLER_0_100_285
*1122 FILLER_0_100_289
*1123 FILLER_0_100_29
*1124 FILLER_0_100_3
*1125 FILLER_0_100_301
*1126 FILLER_0_100_307
*1127 FILLER_0_100_309
*1128 FILLER_0_100_321
*1129 FILLER_0_100_333
*1130 FILLER_0_100_345
*1131 FILLER_0_100_357
*1132 FILLER_0_100_363
*1133 FILLER_0_100_365
*1134 FILLER_0_100_377
*1135 FILLER_0_100_389
*1136 FILLER_0_100_401
*1137 FILLER_0_100_41
*1138 FILLER_0_100_413
*1139 FILLER_0_100_419
*1140 FILLER_0_100_421
*1141 FILLER_0_100_433
*1142 FILLER_0_100_445
*1143 FILLER_0_100_457
*1144 FILLER_0_100_471
*1145 FILLER_0_100_475
*1146 FILLER_0_100_477
*1147 FILLER_0_100_489
*1148 FILLER_0_100_501
*1149 FILLER_0_100_507
*1150 FILLER_0_100_519
*1151 FILLER_0_100_53
*1152 FILLER_0_100_531
*1153 FILLER_0_100_533
*1154 FILLER_0_100_545
*1155 FILLER_0_100_557
*1156 FILLER_0_100_569
*1157 FILLER_0_100_581
*1158 FILLER_0_100_587
*1159 FILLER_0_100_589
*1160 FILLER_0_100_601
*1161 FILLER_0_100_613
*1162 FILLER_0_100_625
*1163 FILLER_0_100_637
*1164 FILLER_0_100_643
*1165 FILLER_0_100_645
*1166 FILLER_0_100_657
*1167 FILLER_0_100_669
*1168 FILLER_0_100_68
*1169 FILLER_0_100_681
*1170 FILLER_0_100_693
*1171 FILLER_0_100_697
*1172 FILLER_0_100_701
*1173 FILLER_0_100_714
*1174 FILLER_0_100_718
*1175 FILLER_0_100_72
*1176 FILLER_0_100_730
*1177 FILLER_0_100_742
*1178 FILLER_0_100_754
*1179 FILLER_0_100_757
*1180 FILLER_0_100_76
*1181 FILLER_0_100_769
*1182 FILLER_0_100_781
*1183 FILLER_0_100_793
*1184 FILLER_0_100_796
*1185 FILLER_0_100_813
*1186 FILLER_0_100_825
*1187 FILLER_0_100_837
*1188 FILLER_0_100_841
*1189 FILLER_0_100_85
*1190 FILLER_0_100_93
*1191 FILLER_0_100_97
*1192 FILLER_0_101_105
*1193 FILLER_0_101_111
*1194 FILLER_0_101_113
*1195 FILLER_0_101_125
*1196 FILLER_0_101_137
*1197 FILLER_0_101_149
*1198 FILLER_0_101_15
*1199 FILLER_0_101_161
*1200 FILLER_0_101_167
*1201 FILLER_0_101_169
*1202 FILLER_0_101_181
*1203 FILLER_0_101_193
*1204 FILLER_0_101_205
*1205 FILLER_0_101_217
*1206 FILLER_0_101_223
*1207 FILLER_0_101_225
*1208 FILLER_0_101_237
*1209 FILLER_0_101_249
*1210 FILLER_0_101_261
*1211 FILLER_0_101_27
*1212 FILLER_0_101_273
*1213 FILLER_0_101_279
*1214 FILLER_0_101_281
*1215 FILLER_0_101_293
*1216 FILLER_0_101_3
*1217 FILLER_0_101_305
*1218 FILLER_0_101_317
*1219 FILLER_0_101_329
*1220 FILLER_0_101_335
*1221 FILLER_0_101_337
*1222 FILLER_0_101_349
*1223 FILLER_0_101_361
*1224 FILLER_0_101_373
*1225 FILLER_0_101_385
*1226 FILLER_0_101_39
*1227 FILLER_0_101_391
*1228 FILLER_0_101_393
*1229 FILLER_0_101_405
*1230 FILLER_0_101_417
*1231 FILLER_0_101_429
*1232 FILLER_0_101_441
*1233 FILLER_0_101_447
*1234 FILLER_0_101_449
*1235 FILLER_0_101_453
*1236 FILLER_0_101_456
*1237 FILLER_0_101_464
*1238 FILLER_0_101_469
*1239 FILLER_0_101_487
*1240 FILLER_0_101_499
*1241 FILLER_0_101_505
*1242 FILLER_0_101_51
*1243 FILLER_0_101_520
*1244 FILLER_0_101_524
*1245 FILLER_0_101_536
*1246 FILLER_0_101_548
*1247 FILLER_0_101_55
*1248 FILLER_0_101_561
*1249 FILLER_0_101_57
*1250 FILLER_0_101_573
*1251 FILLER_0_101_585
*1252 FILLER_0_101_597
*1253 FILLER_0_101_609
*1254 FILLER_0_101_615
*1255 FILLER_0_101_617
*1256 FILLER_0_101_629
*1257 FILLER_0_101_641
*1258 FILLER_0_101_653
*1259 FILLER_0_101_665
*1260 FILLER_0_101_671
*1261 FILLER_0_101_673
*1262 FILLER_0_101_685
*1263 FILLER_0_101_69
*1264 FILLER_0_101_697
*1265 FILLER_0_101_709
*1266 FILLER_0_101_721
*1267 FILLER_0_101_727
*1268 FILLER_0_101_729
*1269 FILLER_0_101_741
*1270 FILLER_0_101_753
*1271 FILLER_0_101_765
*1272 FILLER_0_101_777
*1273 FILLER_0_101_783
*1274 FILLER_0_101_785
*1275 FILLER_0_101_797
*1276 FILLER_0_101_809
*1277 FILLER_0_101_81
*1278 FILLER_0_101_821
*1279 FILLER_0_101_833
*1280 FILLER_0_101_839
*1281 FILLER_0_101_841
*1282 FILLER_0_101_93
*1283 FILLER_0_102_109
*1284 FILLER_0_102_121
*1285 FILLER_0_102_133
*1286 FILLER_0_102_139
*1287 FILLER_0_102_141
*1288 FILLER_0_102_153
*1289 FILLER_0_102_165
*1290 FILLER_0_102_177
*1291 FILLER_0_102_189
*1292 FILLER_0_102_195
*1293 FILLER_0_102_197
*1294 FILLER_0_102_209
*1295 FILLER_0_102_221
*1296 FILLER_0_102_233
*1297 FILLER_0_102_24
*1298 FILLER_0_102_245
*1299 FILLER_0_102_251
*1300 FILLER_0_102_253
*1301 FILLER_0_102_265
*1302 FILLER_0_102_277
*1303 FILLER_0_102_289
*1304 FILLER_0_102_29
*1305 FILLER_0_102_3
*1306 FILLER_0_102_301
*1307 FILLER_0_102_307
*1308 FILLER_0_102_309
*1309 FILLER_0_102_321
*1310 FILLER_0_102_333
*1311 FILLER_0_102_345
*1312 FILLER_0_102_357
*1313 FILLER_0_102_363
*1314 FILLER_0_102_365
*1315 FILLER_0_102_377
*1316 FILLER_0_102_389
*1317 FILLER_0_102_401
*1318 FILLER_0_102_41
*1319 FILLER_0_102_413
*1320 FILLER_0_102_419
*1321 FILLER_0_102_427
*1322 FILLER_0_102_431
*1323 FILLER_0_102_435
*1324 FILLER_0_102_447
*1325 FILLER_0_102_452
*1326 FILLER_0_102_474
*1327 FILLER_0_102_477
*1328 FILLER_0_102_481
*1329 FILLER_0_102_485
*1330 FILLER_0_102_489
*1331 FILLER_0_102_501
*1332 FILLER_0_102_513
*1333 FILLER_0_102_525
*1334 FILLER_0_102_53
*1335 FILLER_0_102_531
*1336 FILLER_0_102_533
*1337 FILLER_0_102_545
*1338 FILLER_0_102_557
*1339 FILLER_0_102_569
*1340 FILLER_0_102_581
*1341 FILLER_0_102_587
*1342 FILLER_0_102_589
*1343 FILLER_0_102_593
*1344 FILLER_0_102_596
*1345 FILLER_0_102_608
*1346 FILLER_0_102_620
*1347 FILLER_0_102_632
*1348 FILLER_0_102_645
*1349 FILLER_0_102_65
*1350 FILLER_0_102_657
*1351 FILLER_0_102_669
*1352 FILLER_0_102_681
*1353 FILLER_0_102_693
*1354 FILLER_0_102_699
*1355 FILLER_0_102_701
*1356 FILLER_0_102_713
*1357 FILLER_0_102_725
*1358 FILLER_0_102_737
*1359 FILLER_0_102_749
*1360 FILLER_0_102_755
*1361 FILLER_0_102_757
*1362 FILLER_0_102_769
*1363 FILLER_0_102_77
*1364 FILLER_0_102_781
*1365 FILLER_0_102_793
*1366 FILLER_0_102_805
*1367 FILLER_0_102_811
*1368 FILLER_0_102_813
*1369 FILLER_0_102_825
*1370 FILLER_0_102_83
*1371 FILLER_0_102_837
*1372 FILLER_0_102_841
*1373 FILLER_0_102_85
*1374 FILLER_0_102_97
*1375 FILLER_0_103_105
*1376 FILLER_0_103_111
*1377 FILLER_0_103_113
*1378 FILLER_0_103_125
*1379 FILLER_0_103_137
*1380 FILLER_0_103_149
*1381 FILLER_0_103_15
*1382 FILLER_0_103_161
*1383 FILLER_0_103_167
*1384 FILLER_0_103_169
*1385 FILLER_0_103_178
*1386 FILLER_0_103_182
*1387 FILLER_0_103_186
*1388 FILLER_0_103_198
*1389 FILLER_0_103_210
*1390 FILLER_0_103_222
*1391 FILLER_0_103_225
*1392 FILLER_0_103_237
*1393 FILLER_0_103_249
*1394 FILLER_0_103_261
*1395 FILLER_0_103_27
*1396 FILLER_0_103_273
*1397 FILLER_0_103_279
*1398 FILLER_0_103_281
*1399 FILLER_0_103_3
*1400 FILLER_0_103_310
*1401 FILLER_0_103_314
*1402 FILLER_0_103_326
*1403 FILLER_0_103_334
*1404 FILLER_0_103_337
*1405 FILLER_0_103_349
*1406 FILLER_0_103_361
*1407 FILLER_0_103_373
*1408 FILLER_0_103_385
*1409 FILLER_0_103_39
*1410 FILLER_0_103_391
*1411 FILLER_0_103_393
*1412 FILLER_0_103_405
*1413 FILLER_0_103_417
*1414 FILLER_0_103_429
*1415 FILLER_0_103_441
*1416 FILLER_0_103_447
*1417 FILLER_0_103_449
*1418 FILLER_0_103_461
*1419 FILLER_0_103_473
*1420 FILLER_0_103_485
*1421 FILLER_0_103_497
*1422 FILLER_0_103_503
*1423 FILLER_0_103_505
*1424 FILLER_0_103_51
*1425 FILLER_0_103_517
*1426 FILLER_0_103_529
*1427 FILLER_0_103_541
*1428 FILLER_0_103_55
*1429 FILLER_0_103_553
*1430 FILLER_0_103_559
*1431 FILLER_0_103_561
*1432 FILLER_0_103_57
*1433 FILLER_0_103_573
*1434 FILLER_0_103_585
*1435 FILLER_0_103_590
*1436 FILLER_0_103_594
*1437 FILLER_0_103_605
*1438 FILLER_0_103_609
*1439 FILLER_0_103_615
*1440 FILLER_0_103_617
*1441 FILLER_0_103_629
*1442 FILLER_0_103_641
*1443 FILLER_0_103_653
*1444 FILLER_0_103_661
*1445 FILLER_0_103_666
*1446 FILLER_0_103_673
*1447 FILLER_0_103_685
*1448 FILLER_0_103_69
*1449 FILLER_0_103_697
*1450 FILLER_0_103_709
*1451 FILLER_0_103_721
*1452 FILLER_0_103_727
*1453 FILLER_0_103_729
*1454 FILLER_0_103_741
*1455 FILLER_0_103_753
*1456 FILLER_0_103_765
*1457 FILLER_0_103_777
*1458 FILLER_0_103_783
*1459 FILLER_0_103_785
*1460 FILLER_0_103_797
*1461 FILLER_0_103_809
*1462 FILLER_0_103_81
*1463 FILLER_0_103_821
*1464 FILLER_0_103_829
*1465 FILLER_0_103_833
*1466 FILLER_0_103_837
*1467 FILLER_0_103_841
*1468 FILLER_0_103_93
*1469 FILLER_0_104_109
*1470 FILLER_0_104_121
*1471 FILLER_0_104_133
*1472 FILLER_0_104_139
*1473 FILLER_0_104_141
*1474 FILLER_0_104_15
*1475 FILLER_0_104_153
*1476 FILLER_0_104_165
*1477 FILLER_0_104_177
*1478 FILLER_0_104_189
*1479 FILLER_0_104_195
*1480 FILLER_0_104_197
*1481 FILLER_0_104_209
*1482 FILLER_0_104_221
*1483 FILLER_0_104_233
*1484 FILLER_0_104_245
*1485 FILLER_0_104_251
*1486 FILLER_0_104_253
*1487 FILLER_0_104_265
*1488 FILLER_0_104_27
*1489 FILLER_0_104_277
*1490 FILLER_0_104_289
*1491 FILLER_0_104_29
*1492 FILLER_0_104_3
*1493 FILLER_0_104_301
*1494 FILLER_0_104_307
*1495 FILLER_0_104_309
*1496 FILLER_0_104_321
*1497 FILLER_0_104_333
*1498 FILLER_0_104_345
*1499 FILLER_0_104_357
*1500 FILLER_0_104_363
*1501 FILLER_0_104_365
*1502 FILLER_0_104_377
*1503 FILLER_0_104_389
*1504 FILLER_0_104_401
*1505 FILLER_0_104_41
*1506 FILLER_0_104_413
*1507 FILLER_0_104_419
*1508 FILLER_0_104_421
*1509 FILLER_0_104_433
*1510 FILLER_0_104_445
*1511 FILLER_0_104_457
*1512 FILLER_0_104_469
*1513 FILLER_0_104_475
*1514 FILLER_0_104_477
*1515 FILLER_0_104_489
*1516 FILLER_0_104_501
*1517 FILLER_0_104_504
*1518 FILLER_0_104_516
*1519 FILLER_0_104_528
*1520 FILLER_0_104_53
*1521 FILLER_0_104_533
*1522 FILLER_0_104_545
*1523 FILLER_0_104_557
*1524 FILLER_0_104_569
*1525 FILLER_0_104_581
*1526 FILLER_0_104_587
*1527 FILLER_0_104_589
*1528 FILLER_0_104_601
*1529 FILLER_0_104_607
*1530 FILLER_0_104_619
*1531 FILLER_0_104_631
*1532 FILLER_0_104_643
*1533 FILLER_0_104_645
*1534 FILLER_0_104_65
*1535 FILLER_0_104_657
*1536 FILLER_0_104_661
*1537 FILLER_0_104_664
*1538 FILLER_0_104_675
*1539 FILLER_0_104_679
*1540 FILLER_0_104_691
*1541 FILLER_0_104_699
*1542 FILLER_0_104_701
*1543 FILLER_0_104_713
*1544 FILLER_0_104_725
*1545 FILLER_0_104_73
*1546 FILLER_0_104_737
*1547 FILLER_0_104_749
*1548 FILLER_0_104_755
*1549 FILLER_0_104_757
*1550 FILLER_0_104_769
*1551 FILLER_0_104_78
*1552 FILLER_0_104_781
*1553 FILLER_0_104_793
*1554 FILLER_0_104_805
*1555 FILLER_0_104_811
*1556 FILLER_0_104_813
*1557 FILLER_0_104_82
*1558 FILLER_0_104_825
*1559 FILLER_0_104_828
*1560 FILLER_0_104_832
*1561 FILLER_0_104_85
*1562 FILLER_0_104_97
*1563 FILLER_0_105_108
*1564 FILLER_0_105_113
*1565 FILLER_0_105_117
*1566 FILLER_0_105_121
*1567 FILLER_0_105_125
*1568 FILLER_0_105_129
*1569 FILLER_0_105_133
*1570 FILLER_0_105_137
*1571 FILLER_0_105_141
*1572 FILLER_0_105_15
*1573 FILLER_0_105_153
*1574 FILLER_0_105_165
*1575 FILLER_0_105_169
*1576 FILLER_0_105_181
*1577 FILLER_0_105_193
*1578 FILLER_0_105_205
*1579 FILLER_0_105_217
*1580 FILLER_0_105_223
*1581 FILLER_0_105_225
*1582 FILLER_0_105_237
*1583 FILLER_0_105_249
*1584 FILLER_0_105_261
*1585 FILLER_0_105_27
*1586 FILLER_0_105_273
*1587 FILLER_0_105_279
*1588 FILLER_0_105_281
*1589 FILLER_0_105_293
*1590 FILLER_0_105_3
*1591 FILLER_0_105_305
*1592 FILLER_0_105_317
*1593 FILLER_0_105_329
*1594 FILLER_0_105_335
*1595 FILLER_0_105_337
*1596 FILLER_0_105_349
*1597 FILLER_0_105_361
*1598 FILLER_0_105_373
*1599 FILLER_0_105_385
*1600 FILLER_0_105_39
*1601 FILLER_0_105_391
*1602 FILLER_0_105_393
*1603 FILLER_0_105_405