* NGSPICE file created from Main.ext - technology: sky130A

* Black-box entry subcircuit for sky130_fd_sc_hd__tapvpwrvgnd_1 abstract view
.subckt sky130_fd_sc_hd__tapvpwrvgnd_1 VGND VPWR
.ends

* Black-box entry subcircuit for sky130_fd_sc_hd__a21oi_1 abstract view
.subckt sky130_fd_sc_hd__a21oi_1 A1 A2 B1 VGND VNB VPB VPWR Y
.ends

* Black-box entry subcircuit for sky130_ef_sc_hd__decap_12 abstract view
.subckt sky130_ef_sc_hd__decap_12 VPWR VGND VPB VNB
.ends

* Black-box entry subcircuit for sky130_fd_sc_hd__and2_1 abstract view
.subckt sky130_fd_sc_hd__and2_1 A B VGND VNB VPB VPWR X
.ends

* Black-box entry subcircuit for sky130_fd_sc_hd__clkbuf_4 abstract view
.subckt sky130_fd_sc_hd__clkbuf_4 A VGND VNB VPB VPWR X
.ends

* Black-box entry subcircuit for sky130_fd_sc_hd__nor2_1 abstract view
.subckt sky130_fd_sc_hd__nor2_1 A B VGND VNB VPB VPWR Y
.ends

* Black-box entry subcircuit for sky130_fd_sc_hd__or3b_1 abstract view
.subckt sky130_fd_sc_hd__or3b_1 A B C_N VGND VNB VPB VPWR X
.ends

* Black-box entry subcircuit for sky130_fd_sc_hd__fill_2 abstract view
.subckt sky130_fd_sc_hd__fill_2 VGND VNB VPB VPWR
.ends

* Black-box entry subcircuit for sky130_fd_sc_hd__fill_1 abstract view
.subckt sky130_fd_sc_hd__fill_1 VGND VNB VPB VPWR
.ends

* Black-box entry subcircuit for sky130_fd_sc_hd__decap_3 abstract view
.subckt sky130_fd_sc_hd__decap_3 VGND VNB VPB VPWR
.ends

* Black-box entry subcircuit for sky130_fd_sc_hd__decap_6 abstract view
.subckt sky130_fd_sc_hd__decap_6 VGND VNB VPB VPWR
.ends

* Black-box entry subcircuit for sky130_fd_sc_hd__dfxtp_1 abstract view
.subckt sky130_fd_sc_hd__dfxtp_1 CLK D VGND VNB VPB VPWR Q
.ends

* Black-box entry subcircuit for sky130_fd_sc_hd__mux2_1 abstract view
.subckt sky130_fd_sc_hd__mux2_1 A0 A1 S VGND VNB VPB VPWR X
.ends

* Black-box entry subcircuit for sky130_fd_sc_hd__nand2_1 abstract view
.subckt sky130_fd_sc_hd__nand2_1 A B VGND VNB VPB VPWR Y
.ends

* Black-box entry subcircuit for sky130_fd_sc_hd__clkbuf_1 abstract view
.subckt sky130_fd_sc_hd__clkbuf_1 A VGND VNB VPB VPWR X
.ends

* Black-box entry subcircuit for sky130_fd_sc_hd__decap_4 abstract view
.subckt sky130_fd_sc_hd__decap_4 VGND VNB VPB VPWR
.ends

* Black-box entry subcircuit for sky130_fd_sc_hd__decap_8 abstract view
.subckt sky130_fd_sc_hd__decap_8 VGND VNB VPB VPWR
.ends

* Black-box entry subcircuit for sky130_fd_sc_hd__a21o_1 abstract view
.subckt sky130_fd_sc_hd__a21o_1 A1 A2 B1 VGND VNB VPB VPWR X
.ends

* Black-box entry subcircuit for sky130_fd_sc_hd__clkbuf_8 abstract view
.subckt sky130_fd_sc_hd__clkbuf_8 A VGND VNB VPB VPWR X
.ends

* Black-box entry subcircuit for sky130_fd_sc_hd__xnor2_1 abstract view
.subckt sky130_fd_sc_hd__xnor2_1 A B VGND VNB VPB VPWR Y
.ends

* Black-box entry subcircuit for sky130_fd_sc_hd__o21ai_1 abstract view
.subckt sky130_fd_sc_hd__o21ai_1 A1 A2 B1 VGND VNB VPB VPWR Y
.ends

* Black-box entry subcircuit for sky130_fd_sc_hd__dlxtn_1 abstract view
.subckt sky130_fd_sc_hd__dlxtn_1 D GATE_N VGND VNB VPB VPWR Q
.ends

* Black-box entry subcircuit for sky130_fd_sc_hd__or2_1 abstract view
.subckt sky130_fd_sc_hd__or2_1 A B VGND VNB VPB VPWR X
.ends

* Black-box entry subcircuit for sky130_fd_sc_hd__inv_2 abstract view
.subckt sky130_fd_sc_hd__inv_2 A VGND VNB VPB VPWR Y
.ends

* Black-box entry subcircuit for sky130_fd_sc_hd__dfrtp_2 abstract view
.subckt sky130_fd_sc_hd__dfrtp_2 CLK D RESET_B VGND VNB VPB VPWR Q
.ends

* Black-box entry subcircuit for sky130_fd_sc_hd__mux2_2 abstract view
.subckt sky130_fd_sc_hd__mux2_2 A0 A1 S VGND VNB VPB VPWR X
.ends

* Black-box entry subcircuit for sky130_fd_sc_hd__o21a_1 abstract view
.subckt sky130_fd_sc_hd__o21a_1 A1 A2 B1 VGND VNB VPB VPWR X
.ends

* Black-box entry subcircuit for sky130_fd_sc_hd__a22o_1 abstract view
.subckt sky130_fd_sc_hd__a22o_1 A1 A2 B1 B2 VGND VNB VPB VPWR X
.ends

* Black-box entry subcircuit for sky130_fd_sc_hd__o21ai_2 abstract view
.subckt sky130_fd_sc_hd__o21ai_2 A1 A2 B1 VGND VNB VPB VPWR Y
.ends

* Black-box entry subcircuit for sky130_fd_sc_hd__xor2_1 abstract view
.subckt sky130_fd_sc_hd__xor2_1 A B VGND VNB VPB VPWR X
.ends

* Black-box entry subcircuit for sky130_fd_sc_hd__buf_1 abstract view
.subckt sky130_fd_sc_hd__buf_1 A VGND VNB VPB VPWR X
.ends

* Black-box entry subcircuit for sky130_fd_sc_hd__o22a_1 abstract view
.subckt sky130_fd_sc_hd__o22a_1 A1 A2 B1 B2 VGND VNB VPB VPWR X
.ends

* Black-box entry subcircuit for sky130_fd_sc_hd__and2b_1 abstract view
.subckt sky130_fd_sc_hd__and2b_1 A_N B VGND VNB VPB VPWR X
.ends

* Black-box entry subcircuit for sky130_fd_sc_hd__or3_1 abstract view
.subckt sky130_fd_sc_hd__or3_1 A B C VGND VNB VPB VPWR X
.ends

* Black-box entry subcircuit for sky130_fd_sc_hd__a31oi_4 abstract view
.subckt sky130_fd_sc_hd__a31oi_4 A1 A2 A3 B1 VGND VNB VPB VPWR Y
.ends

* Black-box entry subcircuit for sky130_fd_sc_hd__o221a_1 abstract view
.subckt sky130_fd_sc_hd__o221a_1 A1 A2 B1 B2 C1 VGND VNB VPB VPWR X
.ends

* Black-box entry subcircuit for sky130_fd_sc_hd__o211a_1 abstract view
.subckt sky130_fd_sc_hd__o211a_1 A1 A2 B1 C1 VGND VNB VPB VPWR X
.ends

* Black-box entry subcircuit for sky130_fd_sc_hd__a2bb2o_1 abstract view
.subckt sky130_fd_sc_hd__a2bb2o_1 A1_N A2_N B1 B2 VGND VNB VPB VPWR X
.ends

* Black-box entry subcircuit for sky130_fd_sc_hd__o21ba_1 abstract view
.subckt sky130_fd_sc_hd__o21ba_1 A1 A2 B1_N VGND VNB VPB VPWR X
.ends

* Black-box entry subcircuit for sky130_fd_sc_hd__a221o_1 abstract view
.subckt sky130_fd_sc_hd__a221o_1 A1 A2 B1 B2 C1 VGND VNB VPB VPWR X
.ends

* Black-box entry subcircuit for sky130_fd_sc_hd__o21bai_1 abstract view
.subckt sky130_fd_sc_hd__o21bai_1 A1 A2 B1_N VGND VNB VPB VPWR Y
.ends

* Black-box entry subcircuit for sky130_fd_sc_hd__and3_1 abstract view
.subckt sky130_fd_sc_hd__and3_1 A B C VGND VNB VPB VPWR X
.ends

* Black-box entry subcircuit for sky130_fd_sc_hd__a211o_1 abstract view
.subckt sky130_fd_sc_hd__a211o_1 A1 A2 B1 C1 VGND VNB VPB VPWR X
.ends

* Black-box entry subcircuit for sky130_fd_sc_hd__a211oi_1 abstract view
.subckt sky130_fd_sc_hd__a211oi_1 A1 A2 B1 C1 VGND VNB VPB VPWR Y
.ends

* Black-box entry subcircuit for sky130_fd_sc_hd__dfrtp_4 abstract view
.subckt sky130_fd_sc_hd__dfrtp_4 CLK D RESET_B VGND VNB VPB VPWR Q
.ends

* Black-box entry subcircuit for sky130_fd_sc_hd__buf_4 abstract view
.subckt sky130_fd_sc_hd__buf_4 A VGND VNB VPB VPWR X
.ends

* Black-box entry subcircuit for sky130_fd_sc_hd__o21a_2 abstract view
.subckt sky130_fd_sc_hd__o21a_2 A1 A2 B1 VGND VNB VPB VPWR X
.ends

* Black-box entry subcircuit for sky130_fd_sc_hd__a21bo_1 abstract view
.subckt sky130_fd_sc_hd__a21bo_1 A1 A2 B1_N VGND VNB VPB VPWR X
.ends

* Black-box entry subcircuit for sky130_fd_sc_hd__or4b_1 abstract view
.subckt sky130_fd_sc_hd__or4b_1 A B C D_N VGND VNB VPB VPWR X
.ends

* Black-box entry subcircuit for sky130_fd_sc_hd__nand3_1 abstract view
.subckt sky130_fd_sc_hd__nand3_1 A B C VGND VNB VPB VPWR Y
.ends

* Black-box entry subcircuit for sky130_fd_sc_hd__buf_6 abstract view
.subckt sky130_fd_sc_hd__buf_6 A VGND VNB VPB VPWR X
.ends

* Black-box entry subcircuit for sky130_fd_sc_hd__o2bb2a_1 abstract view
.subckt sky130_fd_sc_hd__o2bb2a_1 A1_N A2_N B1 B2 VGND VNB VPB VPWR X
.ends

* Black-box entry subcircuit for sky130_fd_sc_hd__buf_2 abstract view
.subckt sky130_fd_sc_hd__buf_2 A VGND VNB VPB VPWR X
.ends

* Black-box entry subcircuit for sky130_fd_sc_hd__a21oi_2 abstract view
.subckt sky130_fd_sc_hd__a21oi_2 A1 A2 B1 VGND VNB VPB VPWR Y
.ends

* Black-box entry subcircuit for sky130_fd_sc_hd__nand4b_1 abstract view
.subckt sky130_fd_sc_hd__nand4b_1 A_N B C D VGND VNB VPB VPWR Y
.ends

* Black-box entry subcircuit for sky130_fd_sc_hd__inv_6 abstract view
.subckt sky130_fd_sc_hd__inv_6 A VGND VNB VPB VPWR Y
.ends

* Black-box entry subcircuit for sky130_fd_sc_hd__clkinvlp_2 abstract view
.subckt sky130_fd_sc_hd__clkinvlp_2 A VGND VNB VPB VPWR Y
.ends

* Black-box entry subcircuit for sky130_fd_sc_hd__or2b_1 abstract view
.subckt sky130_fd_sc_hd__or2b_1 A B_N VGND VNB VPB VPWR X
.ends

* Black-box entry subcircuit for sky130_fd_sc_hd__or4_1 abstract view
.subckt sky130_fd_sc_hd__or4_1 A B C D VGND VNB VPB VPWR X
.ends

* Black-box entry subcircuit for sky130_fd_sc_hd__clkinv_4 abstract view
.subckt sky130_fd_sc_hd__clkinv_4 A VGND VNB VPB VPWR Y
.ends

* Black-box entry subcircuit for sky130_fd_sc_hd__or4_4 abstract view
.subckt sky130_fd_sc_hd__or4_4 A B C D VGND VNB VPB VPWR X
.ends

* Black-box entry subcircuit for sky130_fd_sc_hd__nand2_2 abstract view
.subckt sky130_fd_sc_hd__nand2_2 A B VGND VNB VPB VPWR Y
.ends

* Black-box entry subcircuit for sky130_fd_sc_hd__nor2_2 abstract view
.subckt sky130_fd_sc_hd__nor2_2 A B VGND VNB VPB VPWR Y
.ends

* Black-box entry subcircuit for sky130_fd_sc_hd__a21boi_1 abstract view
.subckt sky130_fd_sc_hd__a21boi_1 A1 A2 B1_N VGND VNB VPB VPWR Y
.ends

* Black-box entry subcircuit for sky130_fd_sc_hd__o32a_1 abstract view
.subckt sky130_fd_sc_hd__o32a_1 A1 A2 A3 B1 B2 VGND VNB VPB VPWR X
.ends

* Black-box entry subcircuit for sky130_fd_sc_hd__clkbuf_16 abstract view
.subckt sky130_fd_sc_hd__clkbuf_16 A VGND VNB VPB VPWR X
.ends

* Black-box entry subcircuit for sky130_fd_sc_hd__a311o_1 abstract view
.subckt sky130_fd_sc_hd__a311o_1 A1 A2 A3 B1 C1 VGND VNB VPB VPWR X
.ends

* Black-box entry subcircuit for sky130_fd_sc_hd__or2_2 abstract view
.subckt sky130_fd_sc_hd__or2_2 A B VGND VNB VPB VPWR X
.ends

* Black-box entry subcircuit for sky130_fd_sc_hd__bufinv_16 abstract view
.subckt sky130_fd_sc_hd__bufinv_16 A VGND VNB VPB VPWR Y
.ends

* Black-box entry subcircuit for sky130_fd_sc_hd__a31o_2 abstract view
.subckt sky130_fd_sc_hd__a31o_2 A1 A2 A3 B1 VGND VNB VPB VPWR X
.ends

* Black-box entry subcircuit for sky130_fd_sc_hd__a31o_1 abstract view
.subckt sky130_fd_sc_hd__a31o_1 A1 A2 A3 B1 VGND VNB VPB VPWR X
.ends

* Black-box entry subcircuit for sky130_fd_sc_hd__clkinvlp_4 abstract view
.subckt sky130_fd_sc_hd__clkinvlp_4 A VGND VNB VPB VPWR Y
.ends

* Black-box entry subcircuit for sky130_fd_sc_hd__and3_2 abstract view
.subckt sky130_fd_sc_hd__and3_2 A B C VGND VNB VPB VPWR X
.ends

* Black-box entry subcircuit for sky130_fd_sc_hd__clkinv_1 abstract view
.subckt sky130_fd_sc_hd__clkinv_1 A VGND VNB VPB VPWR Y
.ends

* Black-box entry subcircuit for sky130_fd_sc_hd__and4_1 abstract view
.subckt sky130_fd_sc_hd__and4_1 A B C D VGND VNB VPB VPWR X
.ends

* Black-box entry subcircuit for sky130_fd_sc_hd__dfxtp_4 abstract view
.subckt sky130_fd_sc_hd__dfxtp_4 CLK D VGND VNB VPB VPWR Q
.ends

* Black-box entry subcircuit for sky130_fd_sc_hd__dlxtn_2 abstract view
.subckt sky130_fd_sc_hd__dlxtn_2 D GATE_N VGND VNB VPB VPWR Q
.ends

* Black-box entry subcircuit for sky130_fd_sc_hd__xor2_2 abstract view
.subckt sky130_fd_sc_hd__xor2_2 A B VGND VNB VPB VPWR X
.ends

* Black-box entry subcircuit for sky130_fd_sc_hd__dlymetal6s2s_1 abstract view
.subckt sky130_fd_sc_hd__dlymetal6s2s_1 A VGND VNB VPB VPWR X
.ends

* Black-box entry subcircuit for sky130_fd_sc_hd__o211ai_2 abstract view
.subckt sky130_fd_sc_hd__o211ai_2 A1 A2 B1 C1 VGND VNB VPB VPWR Y
.ends

* Black-box entry subcircuit for sky130_fd_sc_hd__or3b_2 abstract view
.subckt sky130_fd_sc_hd__or3b_2 A B C_N VGND VNB VPB VPWR X
.ends

* Black-box entry subcircuit for sky130_fd_sc_hd__clkbuf_2 abstract view
.subckt sky130_fd_sc_hd__clkbuf_2 A VGND VNB VPB VPWR X
.ends

* Black-box entry subcircuit for sky130_fd_sc_hd__a31oi_2 abstract view
.subckt sky130_fd_sc_hd__a31oi_2 A1 A2 A3 B1 VGND VNB VPB VPWR Y
.ends

* Black-box entry subcircuit for sky130_fd_sc_hd__o2111ai_4 abstract view
.subckt sky130_fd_sc_hd__o2111ai_4 A1 A2 B1 C1 D1 VGND VNB VPB VPWR Y
.ends

* Black-box entry subcircuit for sky130_fd_sc_hd__nor2b_1 abstract view
.subckt sky130_fd_sc_hd__nor2b_1 A B_N VGND VNB VPB VPWR Y
.ends

* Black-box entry subcircuit for sky130_fd_sc_hd__nand2b_4 abstract view
.subckt sky130_fd_sc_hd__nand2b_4 A_N B VGND VNB VPB VPWR Y
.ends

* Black-box entry subcircuit for sky130_fd_sc_hd__a32o_1 abstract view
.subckt sky130_fd_sc_hd__a32o_1 A1 A2 A3 B1 B2 VGND VNB VPB VPWR X
.ends

* Black-box entry subcircuit for sky130_fd_sc_hd__a31oi_1 abstract view
.subckt sky130_fd_sc_hd__a31oi_1 A1 A2 A3 B1 VGND VNB VPB VPWR Y
.ends

* Black-box entry subcircuit for sky130_fd_sc_hd__nand2b_1 abstract view
.subckt sky130_fd_sc_hd__nand2b_1 A_N B VGND VNB VPB VPWR Y
.ends

* Black-box entry subcircuit for sky130_fd_sc_hd__and3b_1 abstract view
.subckt sky130_fd_sc_hd__and3b_1 A_N B C VGND VNB VPB VPWR X
.ends

* Black-box entry subcircuit for sky130_fd_sc_hd__o221ai_2 abstract view
.subckt sky130_fd_sc_hd__o221ai_2 A1 A2 B1 B2 C1 VGND VNB VPB VPWR Y
.ends

* Black-box entry subcircuit for sky130_fd_sc_hd__nand3b_1 abstract view
.subckt sky130_fd_sc_hd__nand3b_1 A_N B C VGND VNB VPB VPWR Y
.ends

* Black-box entry subcircuit for sky130_fd_sc_hd__and2_2 abstract view
.subckt sky130_fd_sc_hd__and2_2 A B VGND VNB VPB VPWR X
.ends

* Black-box entry subcircuit for sky130_fd_sc_hd__xnor2_2 abstract view
.subckt sky130_fd_sc_hd__xnor2_2 A B VGND VNB VPB VPWR Y
.ends

* Black-box entry subcircuit for sky130_fd_sc_hd__and4bb_4 abstract view
.subckt sky130_fd_sc_hd__and4bb_4 A_N B_N C D VGND VNB VPB VPWR X
.ends

* Black-box entry subcircuit for sky130_fd_sc_hd__a32o_2 abstract view
.subckt sky130_fd_sc_hd__a32o_2 A1 A2 A3 B1 B2 VGND VNB VPB VPWR X
.ends

* Black-box entry subcircuit for sky130_fd_sc_hd__o311a_1 abstract view
.subckt sky130_fd_sc_hd__o311a_1 A1 A2 A3 B1 C1 VGND VNB VPB VPWR X
.ends

* Black-box entry subcircuit for sky130_fd_sc_hd__o211ai_1 abstract view
.subckt sky130_fd_sc_hd__o211ai_1 A1 A2 B1 C1 VGND VNB VPB VPWR Y
.ends

* Black-box entry subcircuit for sky130_fd_sc_hd__a32oi_4 abstract view
.subckt sky130_fd_sc_hd__a32oi_4 A1 A2 A3 B1 B2 VGND VNB VPB VPWR Y
.ends

* Black-box entry subcircuit for sky130_fd_sc_hd__a21oi_4 abstract view
.subckt sky130_fd_sc_hd__a21oi_4 A1 A2 B1 VGND VNB VPB VPWR Y
.ends

* Black-box entry subcircuit for sky130_fd_sc_hd__nor2_4 abstract view
.subckt sky130_fd_sc_hd__nor2_4 A B VGND VNB VPB VPWR Y
.ends

* Black-box entry subcircuit for sky130_fd_sc_hd__and4b_1 abstract view
.subckt sky130_fd_sc_hd__and4b_1 A_N B C D VGND VNB VPB VPWR X
.ends

* Black-box entry subcircuit for sky130_fd_sc_hd__a21o_4 abstract view
.subckt sky130_fd_sc_hd__a21o_4 A1 A2 B1 VGND VNB VPB VPWR X
.ends

* Black-box entry subcircuit for sky130_fd_sc_hd__nor2_8 abstract view
.subckt sky130_fd_sc_hd__nor2_8 A B VGND VNB VPB VPWR Y
.ends

* Black-box entry subcircuit for sky130_fd_sc_hd__inv_1 abstract view
.subckt sky130_fd_sc_hd__inv_1 A VGND VNB VPB VPWR Y
.ends

* Black-box entry subcircuit for sky130_fd_sc_hd__diode_2 abstract view
.subckt sky130_fd_sc_hd__diode_2 DIODE VGND VNB VPB VPWR
.ends

* Black-box entry subcircuit for sky130_fd_sc_hd__dfxtp_2 abstract view
.subckt sky130_fd_sc_hd__dfxtp_2 CLK D VGND VNB VPB VPWR Q
.ends

* Black-box entry subcircuit for sky130_fd_sc_hd__o22ai_2 abstract view
.subckt sky130_fd_sc_hd__o22ai_2 A1 A2 B1 B2 VGND VNB VPB VPWR Y
.ends

* Black-box entry subcircuit for sky130_fd_sc_hd__conb_1 abstract view
.subckt sky130_fd_sc_hd__conb_1 VGND VNB VPB VPWR HI LO
.ends

* Black-box entry subcircuit for sky130_fd_sc_hd__nor2b_2 abstract view
.subckt sky130_fd_sc_hd__nor2b_2 A B_N VGND VNB VPB VPWR Y
.ends

* Black-box entry subcircuit for sky130_fd_sc_hd__a211o_2 abstract view
.subckt sky130_fd_sc_hd__a211o_2 A1 A2 B1 C1 VGND VNB VPB VPWR X
.ends

.subckt Main VGND VPWR an[0] an[1] an[2] an[3] an[4] an[5] an[6] an[7] clk cx[0] cx[1]
+ cx[2] cx[3] cx[4] cx[5] cx[6] cx[7] next rst
XTAP_TAPCELL_ROW_77_592 VGND VPWR sky130_fd_sc_hd__tapvpwrvgnd_1
XTAP_TAPCELL_ROW_69_548 VGND VPWR sky130_fd_sc_hd__tapvpwrvgnd_1
X_3155_ _0361_ _0369_ _1545_ VGND VGND VPWR VPWR _1561_ sky130_fd_sc_hd__a21oi_1
XFILLER_0_27_93 VPWR VGND VPWR VGND sky130_ef_sc_hd__decap_12
X_2037_ _1757_ _0524_ VGND VGND VPWR VPWR _0536_ sky130_fd_sc_hd__and2_1
X_2106_ _0591_ VGND VGND VPWR VPWR _0592_ sky130_fd_sc_hd__clkbuf_4
X_3086_ _1518_ _1519_ VGND VGND VPWR VPWR _0032_ sky130_fd_sc_hd__nor2_1
X_2939_ _1391_ _1393_ _1398_ VGND VGND VPWR VPWR _1399_ sky130_fd_sc_hd__or3b_1
XFILLER_0_43_81 VPWR VGND VPWR VGND sky130_ef_sc_hd__decap_12
XFILLER_0_17_222 VGND VGND VPWR VPWR sky130_fd_sc_hd__fill_2
XFILLER_0_17_255 VGND VGND VPWR VPWR sky130_fd_sc_hd__fill_1
XFILLER_0_4_160 VGND VGND VPWR VPWR sky130_fd_sc_hd__decap_3
XFILLER_0_67_111 VGND VGND VPWR VPWR sky130_fd_sc_hd__fill_1
XTAP_TAPCELL_ROW_43_404 VGND VPWR sky130_fd_sc_hd__tapvpwrvgnd_1
XFILLER_0_48_15 VGND VGND VPWR VPWR sky130_fd_sc_hd__decap_6
XTAP_TAPCELL_ROW_66_529 VGND VPWR sky130_fd_sc_hd__tapvpwrvgnd_1
XTAP_TAPCELL_ROW_74_573 VGND VPWR sky130_fd_sc_hd__tapvpwrvgnd_1
XFILLER_0_73_169 VPWR VGND VPWR VGND sky130_ef_sc_hd__decap_12
XFILLER_0_58_133 VGND VGND VPWR VPWR sky130_fd_sc_hd__decap_6
XFILLER_0_46_317 VGND VGND VPWR VPWR sky130_fd_sc_hd__decap_3
XFILLER_0_46_306 VGND VGND VPWR VPWR sky130_fd_sc_hd__fill_2
XFILLER_0_13_62 VGND VGND VPWR VPWR sky130_fd_sc_hd__decap_6
X_3773_ clknet_4_8_0_clk _0220_ VGND VGND VPWR VPWR reg_file.memory\[25\]\[22\] sky130_fd_sc_hd__dfxtp_1
X_2724_ _1039_ _1044_ _0956_ VGND VGND VPWR VPWR _1197_ sky130_fd_sc_hd__mux2_1
X_2655_ _1130_ _1131_ VGND VGND VPWR VPWR _1132_ sky130_fd_sc_hd__nand2_1
XFILLER_0_38_81 VGND VGND VPWR VPWR sky130_fd_sc_hd__decap_3
X_3207_ reg_file.memory\[5\]\[14\] alu.ALUResult\[14\] _1584_ VGND VGND VPWR VPWR
+ _1589_ sky130_fd_sc_hd__mux2_1
X_2586_ _1021_ _1065_ _0699_ VGND VGND VPWR VPWR _1066_ sky130_fd_sc_hd__mux2_1
XFILLER_0_1_185 VGND VGND VPWR VPWR sky130_fd_sc_hd__fill_1
XFILLER_0_49_111 VGND VGND VPWR VPWR sky130_fd_sc_hd__fill_1
X_3069_ clk_div.counter\[5\] _1505_ VGND VGND VPWR VPWR _1509_ sky130_fd_sc_hd__and2_1
X_3138_ _1552_ VGND VGND VPWR VPWR _0051_ sky130_fd_sc_hd__clkbuf_1
XFILLER_0_64_136 VGND VGND VPWR VPWR sky130_fd_sc_hd__decap_4
XFILLER_0_64_114 VGND VGND VPWR VPWR sky130_fd_sc_hd__decap_6
XFILLER_0_52_309 VGND VGND VPWR VPWR sky130_fd_sc_hd__decap_8
XFILLER_0_9_241 VGND VGND VPWR VPWR sky130_fd_sc_hd__fill_1
XFILLER_0_9_263 VPWR VGND VPWR VGND sky130_ef_sc_hd__decap_12
XTAP_TAPCELL_ROW_5_195 VGND VPWR sky130_fd_sc_hd__tapvpwrvgnd_1
XFILLER_0_55_158 VGND VGND VPWR VPWR sky130_fd_sc_hd__decap_8
XFILLER_0_55_125 VPWR VGND VPWR VGND sky130_ef_sc_hd__decap_12
XFILLER_0_28_317 VGND VGND VPWR VPWR sky130_fd_sc_hd__decap_3
X_2440_ _0749_ _0751_ _0789_ VGND VGND VPWR VPWR _0924_ sky130_fd_sc_hd__a21o_1
XTAP_TAPCELL_ROW_79_610 VGND VPWR sky130_fd_sc_hd__tapvpwrvgnd_1
XFILLER_0_75_57 VPWR VGND VPWR VGND sky130_ef_sc_hd__decap_12
X_2371_ _0661_ _0855_ VGND VGND VPWR VPWR _0856_ sky130_fd_sc_hd__nand2_1
XTAP_TAPCELL_ROW_62_510 VGND VPWR sky130_fd_sc_hd__tapvpwrvgnd_1
XFILLER_0_46_125 VPWR VGND VPWR VGND sky130_ef_sc_hd__decap_12
Xclkbuf_4_12_0_clk clknet_0_clk VGND VGND VPWR VPWR clknet_4_12_0_clk sky130_fd_sc_hd__clkbuf_8
X_3756_ clknet_4_4_0_clk _0203_ VGND VGND VPWR VPWR reg_file.memory\[25\]\[5\] sky130_fd_sc_hd__dfxtp_1
XFILLER_0_19_317 VGND VGND VPWR VPWR sky130_fd_sc_hd__decap_3
XFILLER_0_24_83 VGND VGND VPWR VPWR sky130_fd_sc_hd__fill_1
XFILLER_0_24_94 VPWR VGND VPWR VGND sky130_ef_sc_hd__decap_12
XFILLER_0_71_3 VGND VGND VPWR VPWR sky130_fd_sc_hd__decap_8
XFILLER_0_40_82 VGND VGND VPWR VPWR sky130_fd_sc_hd__fill_2
X_2707_ _1174_ _1180_ VGND VGND VPWR VPWR _1181_ sky130_fd_sc_hd__xnor2_1
X_3687_ clknet_4_0_0_clk _0134_ VGND VGND VPWR VPWR reg_file.memory\[10\]\[0\] sky130_fd_sc_hd__dfxtp_1
XFILLER_0_10_250 VGND VGND VPWR VPWR sky130_fd_sc_hd__fill_2
XFILLER_0_10_261 VGND VGND VPWR VPWR sky130_fd_sc_hd__decap_6
X_2569_ _1027_ _1030_ _1049_ VGND VGND VPWR VPWR _1050_ sky130_fd_sc_hd__a21oi_1
X_2638_ _1102_ _1103_ _1115_ VGND VGND VPWR VPWR _0270_ sky130_fd_sc_hd__o21ai_1
XFILLER_0_4_60 VGND VGND VPWR VPWR sky130_fd_sc_hd__fill_2
XFILLER_0_10_294 VGND VGND VPWR VPWR sky130_fd_sc_hd__fill_1
XFILLER_0_37_158 VGND VGND VPWR VPWR sky130_fd_sc_hd__decap_8
XFILLER_0_37_125 VPWR VGND VPWR VGND sky130_ef_sc_hd__decap_12
XTAP_TAPCELL_ROW_2_176 VGND VPWR sky130_fd_sc_hd__tapvpwrvgnd_1
XFILLER_0_52_139 VGND VGND VPWR VPWR sky130_fd_sc_hd__fill_1
XFILLER_0_45_180 VPWR VGND VPWR VGND sky130_ef_sc_hd__decap_12
XFILLER_0_37_169 VGND VGND VPWR VPWR sky130_fd_sc_hd__decap_4
XFILLER_0_45_27 VGND VGND VPWR VPWR sky130_fd_sc_hd__decap_8
XFILLER_0_0_29 VGND VGND VPWR VPWR sky130_fd_sc_hd__fill_2
XFILLER_0_61_26 VGND VGND VPWR VPWR sky130_fd_sc_hd__decap_8
X_1871_ _0361_ _0369_ _0364_ VGND VGND VPWR VPWR _0370_ sky130_fd_sc_hd__a21o_1
XFILLER_0_43_139 VGND VGND VPWR VPWR sky130_fd_sc_hd__decap_3
X_3610_ clk_div.slow_clk _0057_ VGND VGND VPWR VPWR seven_seg_conv.temp\[16\] sky130_fd_sc_hd__dfxtp_1
XFILLER_0_28_147 VGND VGND VPWR VPWR sky130_fd_sc_hd__fill_2
X_1940_ alu.ALUResult\[11\] seven_seg_conv.temp\[11\] _1752_ VGND VGND VPWR VPWR _0439_
+ sky130_fd_sc_hd__mux2_1
XTAP_TAPCELL_ROW_16_256 VGND VPWR sky130_fd_sc_hd__tapvpwrvgnd_1
X_2423_ _0902_ _0905_ _0906_ VGND VGND VPWR VPWR _0907_ sky130_fd_sc_hd__mux2_1
X_3541_ _0247_ _0007_ VGND VGND VPWR VPWR alu.ALUResult\[15\] sky130_fd_sc_hd__dlxtn_1
X_3472_ _1727_ VGND VGND VPWR VPWR _0210_ sky130_fd_sc_hd__clkbuf_1
XFILLER_0_3_225 VGND VGND VPWR VPWR sky130_fd_sc_hd__decap_3
XFILLER_0_10_85 VGND VGND VPWR VPWR sky130_fd_sc_hd__decap_4
X_2354_ _0678_ _0838_ VGND VGND VPWR VPWR _0839_ sky130_fd_sc_hd__nand2_1
XFILLER_0_43_7 VGND VGND VPWR VPWR sky130_fd_sc_hd__fill_1
X_2285_ _0583_ _0769_ VGND VGND VPWR VPWR _0770_ sky130_fd_sc_hd__nand2_1
XFILLER_0_74_253 VGND VGND VPWR VPWR sky130_fd_sc_hd__fill_1
X_3739_ clknet_4_15_0_clk _0186_ VGND VGND VPWR VPWR reg_file.memory\[15\]\[20\] sky130_fd_sc_hd__dfxtp_1
XFILLER_0_30_301 VGND VGND VPWR VPWR sky130_fd_sc_hd__decap_3
XFILLER_0_19_169 VGND VGND VPWR VPWR sky130_fd_sc_hd__decap_8
XFILLER_0_42_194 VGND VGND VPWR VPWR sky130_fd_sc_hd__fill_2
XTAP_TAPCELL_ROW_13_237 VGND VPWR sky130_fd_sc_hd__tapvpwrvgnd_1
XFILLER_0_40_109 VPWR VGND VPWR VGND sky130_ef_sc_hd__decap_12
XTAP_TAPCELL_ROW_21_281 VGND VPWR sky130_fd_sc_hd__tapvpwrvgnd_1
X_2070_ _0010_ _0011_ VGND VGND VPWR VPWR _0563_ sky130_fd_sc_hd__nor2_1
XFILLER_0_72_58 VGND VGND VPWR VPWR sky130_fd_sc_hd__decap_4
X_2972_ _0796_ _1427_ VGND VGND VPWR VPWR _1429_ sky130_fd_sc_hd__or2_1
XFILLER_0_56_231 VGND VGND VPWR VPWR sky130_fd_sc_hd__decap_6
XFILLER_0_48_209 VGND VGND VPWR VPWR sky130_fd_sc_hd__fill_1
X_1854_ _0346_ _0347_ VGND VGND VPWR VPWR _0353_ sky130_fd_sc_hd__nand2_1
X_1785_ _0283_ VGND VGND VPWR VPWR _0284_ sky130_fd_sc_hd__inv_2
X_1923_ _0414_ _0416_ VGND VGND VPWR VPWR _0422_ sky130_fd_sc_hd__nand2_1
XFILLER_0_16_139 VGND VGND VPWR VPWR sky130_fd_sc_hd__fill_1
X_2406_ _0726_ _0889_ VGND VGND VPWR VPWR _0890_ sky130_fd_sc_hd__or2_1
X_3386_ reg_file.memory\[15\]\[4\] alu.ALUResult\[4\] _1677_ VGND VGND VPWR VPWR _1682_
+ sky130_fd_sc_hd__mux2_1
X_3455_ _1718_ VGND VGND VPWR VPWR _0202_ sky130_fd_sc_hd__clkbuf_1
X_3524_ net1 _0015_ net2 VGND VGND VPWR VPWR PC\[2\] sky130_fd_sc_hd__dfrtp_2
X_2337_ _0803_ _0821_ _0725_ VGND VGND VPWR VPWR _0822_ sky130_fd_sc_hd__mux2_2
X_2199_ _0592_ VGND VGND VPWR VPWR _0685_ sky130_fd_sc_hd__clkbuf_4
XFILLER_0_34_3 VGND VGND VPWR VPWR sky130_fd_sc_hd__decap_4
XTAP_TAPCELL_ROW_27_318 VGND VPWR sky130_fd_sc_hd__tapvpwrvgnd_1
X_2268_ reg_file.memory\[25\]\[3\] _0662_ _0752_ VGND VGND VPWR VPWR _0753_ sky130_fd_sc_hd__o21a_1
XFILLER_0_62_223 VGND VGND VPWR VPWR sky130_fd_sc_hd__fill_1
XTAP_TAPCELL_ROW_35_362 VGND VPWR sky130_fd_sc_hd__tapvpwrvgnd_1
XFILLER_0_30_164 VGND VGND VPWR VPWR sky130_fd_sc_hd__decap_4
XFILLER_0_30_197 VGND VGND VPWR VPWR sky130_fd_sc_hd__decap_8
XFILLER_0_26_29 VPWR VGND VPWR VGND sky130_ef_sc_hd__decap_12
XTAP_TAPCELL_ROW_58_487 VGND VPWR sky130_fd_sc_hd__tapvpwrvgnd_1
XFILLER_0_53_223 VGND VGND VPWR VPWR sky130_fd_sc_hd__fill_1
XFILLER_0_38_242 VGND VGND VPWR VPWR sky130_fd_sc_hd__fill_1
X_3240_ reg_file.memory\[5\]\[30\] alu.ALUResult\[30\] _1572_ VGND VGND VPWR VPWR
+ _1606_ sky130_fd_sc_hd__mux2_1
XFILLER_0_21_197 VGND VGND VPWR VPWR sky130_fd_sc_hd__decap_4
X_2122_ reg_file.memory\[5\]\[30\] reg_file.memory\[15\]\[30\] _0603_ VGND VGND VPWR
+ VPWR _0608_ sky130_fd_sc_hd__mux2_1
X_3171_ _1543_ seven_seg_conv.temp\[26\] _0311_ VGND VGND VPWR VPWR _0067_ sky130_fd_sc_hd__a21o_1
X_2053_ seven_seg_conv.digit_counter\[3\] seven_seg_conv.current_digit\[3\] _0548_
+ _0549_ VGND VGND VPWR VPWR _0550_ sky130_fd_sc_hd__a22o_1
X_2955_ _1170_ _1375_ VGND VGND VPWR VPWR _1413_ sky130_fd_sc_hd__nor2_1
XTAP_TAPCELL_ROW_32_343 VGND VPWR sky130_fd_sc_hd__tapvpwrvgnd_1
XFILLER_0_29_275 VGND VGND VPWR VPWR sky130_fd_sc_hd__decap_4
XFILLER_0_8_158 VGND VGND VPWR VPWR sky130_fd_sc_hd__decap_6
XFILLER_0_16_73 VGND VGND VPWR VPWR sky130_fd_sc_hd__decap_8
X_1837_ _0327_ _0335_ _0332_ VGND VGND VPWR VPWR _0336_ sky130_fd_sc_hd__o21ai_2
X_3507_ _1745_ VGND VGND VPWR VPWR _0227_ sky130_fd_sc_hd__clkbuf_1
X_2886_ _1227_ _1348_ _0910_ VGND VGND VPWR VPWR _1349_ sky130_fd_sc_hd__mux2_1
X_1906_ _0394_ _0402_ VGND VGND VPWR VPWR _0405_ sky130_fd_sc_hd__xor2_1
X_1768_ _1754_ VGND VGND VPWR VPWR _1755_ sky130_fd_sc_hd__inv_2
X_3369_ _1672_ VGND VGND VPWR VPWR _0162_ sky130_fd_sc_hd__clkbuf_1
X_3438_ reg_file.memory\[15\]\[29\] alu.ALUResult\[29\] _1699_ VGND VGND VPWR VPWR
+ _1709_ sky130_fd_sc_hd__mux2_1
XFILLER_0_79_197 VPWR VGND VPWR VGND sky130_ef_sc_hd__decap_12
XFILLER_0_79_164 VGND VGND VPWR VPWR sky130_fd_sc_hd__decap_4
XTAP_TAPCELL_ROW_55_468 VGND VPWR sky130_fd_sc_hd__tapvpwrvgnd_1
XFILLER_0_50_204 VGND VGND VPWR VPWR sky130_fd_sc_hd__fill_2
XFILLER_0_35_245 VGND VGND VPWR VPWR sky130_fd_sc_hd__decap_4
Xoutput7 net7 VGND VGND VPWR VPWR an[4] sky130_fd_sc_hd__buf_1
XFILLER_0_53_27 VGND VGND VPWR VPWR sky130_fd_sc_hd__decap_6
X_2740_ _0977_ _1063_ _1068_ _1118_ VGND VGND VPWR VPWR _1212_ sky130_fd_sc_hd__o22a_1
X_2671_ _1145_ _1146_ VGND VGND VPWR VPWR _1147_ sky130_fd_sc_hd__and2b_1
XTAP_TAPCELL_ROW_69_549 VGND VPWR sky130_fd_sc_hd__tapvpwrvgnd_1
XFILLER_0_68_9 VGND VGND VPWR VPWR sky130_fd_sc_hd__decap_8
X_3223_ _1597_ VGND VGND VPWR VPWR _0091_ sky130_fd_sc_hd__clkbuf_1
XTAP_TAPCELL_ROW_77_593 VGND VPWR sky130_fd_sc_hd__tapvpwrvgnd_1
X_3154_ _1560_ VGND VGND VPWR VPWR _0059_ sky130_fd_sc_hd__clkbuf_1
X_2036_ _1754_ _0533_ _0534_ VGND VGND VPWR VPWR _0535_ sky130_fd_sc_hd__or3_1
X_2105_ _0585_ _0588_ _0590_ _0581_ VGND VGND VPWR VPWR _0591_ sky130_fd_sc_hd__a31oi_4
X_3085_ clk_div.counter\[10\] _1516_ clk_div.counter\[11\] VGND VGND VPWR VPWR _1519_
+ sky130_fd_sc_hd__a21oi_1
X_2938_ _1118_ _0891_ _1256_ _1274_ _1397_ VGND VGND VPWR VPWR _1398_ sky130_fd_sc_hd__o221a_1
XFILLER_0_43_93 VGND VGND VPWR VPWR sky130_fd_sc_hd__decap_3
X_2869_ _1324_ _1332_ VGND VGND VPWR VPWR _1333_ sky130_fd_sc_hd__xnor2_1
XFILLER_0_67_167 VGND VGND VPWR VPWR sky130_fd_sc_hd__fill_1
XTAP_TAPCELL_ROW_43_405 VGND VPWR sky130_fd_sc_hd__tapvpwrvgnd_1
XFILLER_0_48_27 VGND VGND VPWR VPWR sky130_fd_sc_hd__fill_1
XTAP_TAPCELL_ROW_74_574 VGND VPWR sky130_fd_sc_hd__tapvpwrvgnd_1
XFILLER_0_64_59 VPWR VGND VPWR VGND sky130_ef_sc_hd__decap_12
X_3772_ clknet_4_8_0_clk _0219_ VGND VGND VPWR VPWR reg_file.memory\[25\]\[21\] sky130_fd_sc_hd__dfxtp_1
X_2723_ _1116_ _1038_ VGND VGND VPWR VPWR _1196_ sky130_fd_sc_hd__or2_1
X_2585_ _0686_ _0916_ _0923_ VGND VGND VPWR VPWR _1065_ sky130_fd_sc_hd__o21ai_1
XFILLER_0_1_164 VGND VGND VPWR VPWR sky130_fd_sc_hd__fill_1
XFILLER_0_14_248 VGND VGND VPWR VPWR sky130_fd_sc_hd__decap_4
X_2654_ _0711_ _1129_ VGND VGND VPWR VPWR _1131_ sky130_fd_sc_hd__or2_1
X_3206_ _1588_ VGND VGND VPWR VPWR _0083_ sky130_fd_sc_hd__clkbuf_1
X_3137_ seven_seg_conv.temp\[10\] _0447_ _1534_ VGND VGND VPWR VPWR _1552_ sky130_fd_sc_hd__mux2_1
XFILLER_0_49_167 VGND VGND VPWR VPWR sky130_fd_sc_hd__fill_1
X_3068_ _1508_ VGND VGND VPWR VPWR _0025_ sky130_fd_sc_hd__clkbuf_1
X_2019_ _1758_ _0515_ _0517_ VGND VGND VPWR VPWR _0518_ sky130_fd_sc_hd__or3_1
XFILLER_0_72_192 VGND VGND VPWR VPWR sky130_fd_sc_hd__decap_4
XFILLER_0_9_275 VGND VGND VPWR VPWR sky130_fd_sc_hd__decap_4
XFILLER_0_20_218 VGND VGND VPWR VPWR sky130_fd_sc_hd__fill_1
XFILLER_0_34_29 VPWR VGND VPWR VGND sky130_ef_sc_hd__decap_12
XTAP_TAPCELL_ROW_5_196 VGND VPWR sky130_fd_sc_hd__tapvpwrvgnd_1
XFILLER_0_55_137 VPWR VGND VPWR VGND sky130_ef_sc_hd__decap_12
XFILLER_0_55_104 VGND VGND VPWR VPWR sky130_fd_sc_hd__decap_8
XFILLER_0_59_15 VPWR VGND VPWR VGND sky130_ef_sc_hd__decap_12
XTAP_TAPCELL_ROW_79_600 VGND VPWR sky130_fd_sc_hd__tapvpwrvgnd_1
XFILLER_0_75_69 VPWR VGND VPWR VGND sky130_ef_sc_hd__decap_12
X_2370_ reg_file.memory\[25\]\[16\] _0664_ _0854_ VGND VGND VPWR VPWR _0855_ sky130_fd_sc_hd__o21a_1
XTAP_TAPCELL_ROW_62_511 VGND VPWR sky130_fd_sc_hd__tapvpwrvgnd_1
X_3686_ clknet_4_11_0_clk _0133_ VGND VGND VPWR VPWR reg_file.memory\[0\]\[31\] sky130_fd_sc_hd__dfxtp_1
XFILLER_0_54_192 VGND VGND VPWR VPWR sky130_fd_sc_hd__decap_4
XFILLER_0_46_137 VGND VGND VPWR VPWR sky130_fd_sc_hd__decap_3
X_2706_ _1178_ _1179_ VGND VGND VPWR VPWR _1180_ sky130_fd_sc_hd__and2b_1
X_3755_ clknet_4_5_0_clk _0202_ VGND VGND VPWR VPWR reg_file.memory\[25\]\[4\] sky130_fd_sc_hd__dfxtp_1
X_2499_ _0860_ _0981_ VGND VGND VPWR VPWR _0982_ sky130_fd_sc_hd__or2_1
XFILLER_0_64_3 VGND VGND VPWR VPWR sky130_fd_sc_hd__decap_8
X_2637_ _0872_ _1106_ _1110_ _1114_ VGND VGND VPWR VPWR _1115_ sky130_fd_sc_hd__o211a_1
XPHY_EDGE_ROW_12_Right_12 VGND VGND VPWR VPWR sky130_fd_sc_hd__decap_3
X_2568_ _0739_ _1048_ VGND VGND VPWR VPWR _1049_ sky130_fd_sc_hd__xnor2_1
XFILLER_0_65_91 VGND VGND VPWR VPWR sky130_fd_sc_hd__fill_1
XFILLER_0_4_83 VGND VGND VPWR VPWR sky130_fd_sc_hd__fill_1
XTAP_TAPCELL_ROW_2_177 VGND VPWR sky130_fd_sc_hd__tapvpwrvgnd_1
XPHY_EDGE_ROW_21_Right_21 VGND VGND VPWR VPWR sky130_fd_sc_hd__decap_3
XFILLER_0_37_137 VGND VGND VPWR VPWR sky130_fd_sc_hd__decap_6
XPHY_EDGE_ROW_30_Right_30 VGND VGND VPWR VPWR sky130_fd_sc_hd__decap_3
XFILLER_0_68_251 VGND VGND VPWR VPWR sky130_fd_sc_hd__fill_1
XTAP_TAPCELL_ROW_16_257 VGND VPWR sky130_fd_sc_hd__tapvpwrvgnd_1