*SPEF "ieee 1481-1999"
*DESIGN "top"
*DATE "19:17:26 Saturday May 17, 2025"
*VENDOR "The OpenROAD Project"
*PROGRAM "OpenROAD"
*VERSION "b16bda7e82721d10566ff7e2b68f1ff0be9f9e38"
*DESIGN_FLOW "NAME_SCOPE LOCAL" "PIN_CAP NONE"
*DIVIDER /
*DELIMITER :
*BUS_DELIMITER []
*T_UNIT 1 NS
*C_UNIT 1 PF
*R_UNIT 1 OHM
*L_UNIT 1 HENRY

*NAME_MAP
*3 clk
*4 out[0]
*5 out[1]
*6 out[2]
*7 out[3]
*8 out[4]
*9 out[5]
*10 out[6]
*11 rst
*12 _00_
*13 _01_
*14 _02_
*15 _03_
*16 _04_
*17 _05_
*18 _06_
*19 _07_
*20 _08_
*21 _09_
*22 _10_
*23 _11_
*24 _12_
*25 _13_
*26 _14_
*27 _15_
*28 _16_
*29 _17_
*30 _18_
*31 _19_
*32 clknet_0_clk
*33 clknet_1_0__leaf_clk
*34 clknet_1_1__leaf_clk
*35 display_out\.in\[0\]
*36 display_out\.in\[1\]
*37 display_out\.in\[2\]
*38 display_out\.in\[3\]
*39 net1
*40 net2
*41 net3
*42 net4
*43 net5
*44 net6
*45 net7
*46 net8
*47 ANTENNA_1
*48 ANTENNA_10
*49 ANTENNA_11
*50 ANTENNA_12
*51 ANTENNA_13
*52 ANTENNA_14
*53 ANTENNA_15
*54 ANTENNA_2
*55 ANTENNA_3
*56 ANTENNA_4
*57 ANTENNA_5
*58 ANTENNA_6
*59 ANTENNA_7
*60 ANTENNA_8
*61 ANTENNA_9
*62 FILLER_0_0_109
*63 FILLER_0_0_113
*64 FILLER_0_0_125
*65 FILLER_0_0_137
*66 FILLER_0_0_141
*67 FILLER_0_0_15
*68 FILLER_0_0_153
*69 FILLER_0_0_165
*70 FILLER_0_0_169
*71 FILLER_0_0_181
*72 FILLER_0_0_193
*73 FILLER_0_0_197
*74 FILLER_0_0_209
*75 FILLER_0_0_221
*76 FILLER_0_0_225
*77 FILLER_0_0_237
*78 FILLER_0_0_249
*79 FILLER_0_0_253
*80 FILLER_0_0_265
*81 FILLER_0_0_27
*82 FILLER_0_0_277
*83 FILLER_0_0_281
*84 FILLER_0_0_29
*85 FILLER_0_0_293
*86 FILLER_0_0_3
*87 FILLER_0_0_305
*88 FILLER_0_0_309
*89 FILLER_0_0_321
*90 FILLER_0_0_333
*91 FILLER_0_0_337
*92 FILLER_0_0_349
*93 FILLER_0_0_361
*94 FILLER_0_0_365
*95 FILLER_0_0_377
*96 FILLER_0_0_389
*97 FILLER_0_0_393
*98 FILLER_0_0_405
*99 FILLER_0_0_41
*100 FILLER_0_0_417
*101 FILLER_0_0_421
*102 FILLER_0_0_433
*103 FILLER_0_0_445
*104 FILLER_0_0_449
*105 FILLER_0_0_461
*106 FILLER_0_0_473
*107 FILLER_0_0_477
*108 FILLER_0_0_489
*109 FILLER_0_0_501
*110 FILLER_0_0_505
*111 FILLER_0_0_517
*112 FILLER_0_0_529
*113 FILLER_0_0_53
*114 FILLER_0_0_533
*115 FILLER_0_0_545
*116 FILLER_0_0_557
*117 FILLER_0_0_561
*118 FILLER_0_0_57
*119 FILLER_0_0_573
*120 FILLER_0_0_585
*121 FILLER_0_0_589
*122 FILLER_0_0_601
*123 FILLER_0_0_613
*124 FILLER_0_0_617
*125 FILLER_0_0_69
*126 FILLER_0_0_81
*127 FILLER_0_0_85
*128 FILLER_0_0_97
*129 FILLER_0_100_109
*130 FILLER_0_100_121
*131 FILLER_0_100_133
*132 FILLER_0_100_139
*133 FILLER_0_100_141
*134 FILLER_0_100_15
*135 FILLER_0_100_153
*136 FILLER_0_100_165
*137 FILLER_0_100_177
*138 FILLER_0_100_189
*139 FILLER_0_100_195
*140 FILLER_0_100_197
*141 FILLER_0_100_209
*142 FILLER_0_100_221
*143 FILLER_0_100_233
*144 FILLER_0_100_245
*145 FILLER_0_100_251
*146 FILLER_0_100_253
*147 FILLER_0_100_261
*148 FILLER_0_100_27
*149 FILLER_0_100_281
*150 FILLER_0_100_29
*151 FILLER_0_100_293
*152 FILLER_0_100_3
*153 FILLER_0_100_305
*154 FILLER_0_100_309
*155 FILLER_0_100_321
*156 FILLER_0_100_333
*157 FILLER_0_100_345
*158 FILLER_0_100_357
*159 FILLER_0_100_363
*160 FILLER_0_100_365
*161 FILLER_0_100_377
*162 FILLER_0_100_389
*163 FILLER_0_100_401
*164 FILLER_0_100_41
*165 FILLER_0_100_413
*166 FILLER_0_100_419
*167 FILLER_0_100_421
*168 FILLER_0_100_433
*169 FILLER_0_100_445
*170 FILLER_0_100_457
*171 FILLER_0_100_469
*172 FILLER_0_100_475
*173 FILLER_0_100_477
*174 FILLER_0_100_489
*175 FILLER_0_100_501
*176 FILLER_0_100_513
*177 FILLER_0_100_525
*178 FILLER_0_100_53
*179 FILLER_0_100_531
*180 FILLER_0_100_533
*181 FILLER_0_100_545
*182 FILLER_0_100_557
*183 FILLER_0_100_569
*184 FILLER_0_100_581
*185 FILLER_0_100_587
*186 FILLER_0_100_589
*187 FILLER_0_100_601
*188 FILLER_0_100_613
*189 FILLER_0_100_65
*190 FILLER_0_100_77
*191 FILLER_0_100_83
*192 FILLER_0_100_85
*193 FILLER_0_100_97
*194 FILLER_0_101_109
*195 FILLER_0_101_113
*196 FILLER_0_101_125
*197 FILLER_0_101_137
*198 FILLER_0_101_141
*199 FILLER_0_101_15
*200 FILLER_0_101_153
*201 FILLER_0_101_165
*202 FILLER_0_101_169
*203 FILLER_0_101_181
*204 FILLER_0_101_193
*205 FILLER_0_101_197
*206 FILLER_0_101_209
*207 FILLER_0_101_221
*208 FILLER_0_101_225
*209 FILLER_0_101_237
*210 FILLER_0_101_249
*211 FILLER_0_101_253
*212 FILLER_0_101_265
*213 FILLER_0_101_27
*214 FILLER_0_101_277
*215 FILLER_0_101_281
*216 FILLER_0_101_29
*217 FILLER_0_101_293
*218 FILLER_0_101_3
*219 FILLER_0_101_305
*220 FILLER_0_101_309
*221 FILLER_0_101_321
*222 FILLER_0_101_333
*223 FILLER_0_101_337
*224 FILLER_0_101_349
*225 FILLER_0_101_361
*226 FILLER_0_101_365
*227 FILLER_0_101_377
*228 FILLER_0_101_389
*229 FILLER_0_101_393
*230 FILLER_0_101_405
*231 FILLER_0_101_41
*232 FILLER_0_101_417
*233 FILLER_0_101_421
*234 FILLER_0_101_433
*235 FILLER_0_101_445
*236 FILLER_0_101_449
*237 FILLER_0_101_461
*238 FILLER_0_101_473
*239 FILLER_0_101_477
*240 FILLER_0_101_489
*241 FILLER_0_101_501
*242 FILLER_0_101_505
*243 FILLER_0_101_517
*244 FILLER_0_101_529
*245 FILLER_0_101_53
*246 FILLER_0_101_533
*247 FILLER_0_101_545
*248 FILLER_0_101_557
*249 FILLER_0_101_561
*250 FILLER_0_101_57
*251 FILLER_0_101_573
*252 FILLER_0_101_585
*253 FILLER_0_101_589
*254 FILLER_0_101_601
*255 FILLER_0_101_613
*256 FILLER_0_101_617
*257 FILLER_0_101_69
*258 FILLER_0_101_81
*259 FILLER_0_101_85
*260 FILLER_0_101_97
*261 FILLER_0_10_109
*262 FILLER_0_10_121
*263 FILLER_0_10_133
*264 FILLER_0_10_139
*265 FILLER_0_10_141
*266 FILLER_0_10_15
*267 FILLER_0_10_153
*268 FILLER_0_10_165
*269 FILLER_0_10_177
*270 FILLER_0_10_189
*271 FILLER_0_10_195
*272 FILLER_0_10_197
*273 FILLER_0_10_209
*274 FILLER_0_10_221
*275 FILLER_0_10_233
*276 FILLER_0_10_245
*277 FILLER_0_10_251
*278 FILLER_0_10_253
*279 FILLER_0_10_265
*280 FILLER_0_10_27
*281 FILLER_0_10_277
*282 FILLER_0_10_289
*283 FILLER_0_10_29
*284 FILLER_0_10_3
*285 FILLER_0_10_301
*286 FILLER_0_10_307
*287 FILLER_0_10_309
*288 FILLER_0_10_321
*289 FILLER_0_10_333
*290 FILLER_0_10_345
*291 FILLER_0_10_357
*292 FILLER_0_10_363
*293 FILLER_0_10_365
*294 FILLER_0_10_377
*295 FILLER_0_10_389
*296 FILLER_0_10_401
*297 FILLER_0_10_41
*298 FILLER_0_10_413
*299 FILLER_0_10_419
*300 FILLER_0_10_421
*301 FILLER_0_10_433
*302 FILLER_0_10_445
*303 FILLER_0_10_457
*304 FILLER_0_10_469
*305 FILLER_0_10_475
*306 FILLER_0_10_477
*307 FILLER_0_10_489
*308 FILLER_0_10_501
*309 FILLER_0_10_513
*310 FILLER_0_10_525
*311 FILLER_0_10_53
*312 FILLER_0_10_531
*313 FILLER_0_10_533
*314 FILLER_0_10_545
*315 FILLER_0_10_557
*316 FILLER_0_10_569
*317 FILLER_0_10_581
*318 FILLER_0_10_587
*319 FILLER_0_10_589
*320 FILLER_0_10_601
*321 FILLER_0_10_613
*322 FILLER_0_10_65
*323 FILLER_0_10_77
*324 FILLER_0_10_83
*325 FILLER_0_10_85
*326 FILLER_0_10_97
*327 FILLER_0_11_105
*328 FILLER_0_11_111
*329 FILLER_0_11_113
*330 FILLER_0_11_125
*331 FILLER_0_11_137
*332 FILLER_0_11_149
*333 FILLER_0_11_15
*334 FILLER_0_11_161
*335 FILLER_0_11_167
*336 FILLER_0_11_169
*337 FILLER_0_11_181
*338 FILLER_0_11_193
*339 FILLER_0_11_205
*340 FILLER_0_11_217
*341 FILLER_0_11_223
*342 FILLER_0_11_225
*343 FILLER_0_11_237
*344 FILLER_0_11_249
*345 FILLER_0_11_261
*346 FILLER_0_11_27
*347 FILLER_0_11_273
*348 FILLER_0_11_279
*349 FILLER_0_11_281
*350 FILLER_0_11_293
*351 FILLER_0_11_3
*352 FILLER_0_11_305
*353 FILLER_0_11_317
*354 FILLER_0_11_329
*355 FILLER_0_11_335
*356 FILLER_0_11_337
*357 FILLER_0_11_349
*358 FILLER_0_11_361
*359 FILLER_0_11_373
*360 FILLER_0_11_385
*361 FILLER_0_11_39
*362 FILLER_0_11_391
*363 FILLER_0_11_393
*364 FILLER_0_11_405
*365 FILLER_0_11_417
*366 FILLER_0_11_429
*367 FILLER_0_11_441
*368 FILLER_0_11_447
*369 FILLER_0_11_449
*370 FILLER_0_11_461
*371 FILLER_0_11_473
*372 FILLER_0_11_485
*373 FILLER_0_11_497
*374 FILLER_0_11_503
*375 FILLER_0_11_505
*376 FILLER_0_11_51
*377 FILLER_0_11_517
*378 FILLER_0_11_529
*379 FILLER_0_11_541
*380 FILLER_0_11_55
*381 FILLER_0_11_553
*382 FILLER_0_11_559
*383 FILLER_0_11_561
*384 FILLER_0_11_57
*385 FILLER_0_11_573
*386 FILLER_0_11_585
*387 FILLER_0_11_597
*388 FILLER_0_11_609
*389 FILLER_0_11_615
*390 FILLER_0_11_617
*391 FILLER_0_11_69
*392 FILLER_0_11_81
*393 FILLER_0_11_93
*394 FILLER_0_12_109
*395 FILLER_0_12_121
*396 FILLER_0_12_133
*397 FILLER_0_12_139
*398 FILLER_0_12_141
*399 FILLER_0_12_15
*400 FILLER_0_12_153
*401 FILLER_0_12_165
*402 FILLER_0_12_177
*403 FILLER_0_12_189
*404 FILLER_0_12_195
*405 FILLER_0_12_197
*406 FILLER_0_12_209
*407 FILLER_0_12_221
*408 FILLER_0_12_233
*409 FILLER_0_12_245
*410 FILLER_0_12_251
*411 FILLER_0_12_253
*412 FILLER_0_12_265
*413 FILLER_0_12_27
*414 FILLER_0_12_277
*415 FILLER_0_12_289
*416 FILLER_0_12_29
*417 FILLER_0_12_3
*418 FILLER_0_12_301
*419 FILLER_0_12_307
*420 FILLER_0_12_309
*421 FILLER_0_12_321
*422 FILLER_0_12_333
*423 FILLER_0_12_345
*424 FILLER_0_12_357
*425 FILLER_0_12_363
*426 FILLER_0_12_365
*427 FILLER_0_12_377
*428 FILLER_0_12_389
*429 FILLER_0_12_401
*430 FILLER_0_12_41
*431 FILLER_0_12_413
*432 FILLER_0_12_419
*433 FILLER_0_12_421
*434 FILLER_0_12_433
*435 FILLER_0_12_445
*436 FILLER_0_12_457
*437 FILLER_0_12_469
*438 FILLER_0_12_475
*439 FILLER_0_12_477
*440 FILLER_0_12_489
*441 FILLER_0_12_501
*442 FILLER_0_12_513
*443 FILLER_0_12_525
*444 FILLER_0_12_53
*445 FILLER_0_12_531
*446 FILLER_0_12_533
*447 FILLER_0_12_545
*448 FILLER_0_12_557
*449 FILLER_0_12_569
*450 FILLER_0_12_581
*451 FILLER_0_12_587
*452 FILLER_0_12_589
*453 FILLER_0_12_601
*454 FILLER_0_12_613
*455 FILLER_0_12_65
*456 FILLER_0_12_77
*457 FILLER_0_12_83
*458 FILLER_0_12_85
*459 FILLER_0_12_97
*460 FILLER_0_13_105
*461 FILLER_0_13_111
*462 FILLER_0_13_113
*463 FILLER_0_13_125
*464 FILLER_0_13_137
*465 FILLER_0_13_149
*466 FILLER_0_13_15
*467 FILLER_0_13_161
*468 FILLER_0_13_167
*469 FILLER_0_13_169
*470 FILLER_0_13_181
*471 FILLER_0_13_193
*472 FILLER_0_13_205
*473 FILLER_0_13_217
*474 FILLER_0_13_223
*475 FILLER_0_13_225
*476 FILLER_0_13_237
*477 FILLER_0_13_249
*478 FILLER_0_13_261
*479 FILLER_0_13_27
*480 FILLER_0_13_273
*481 FILLER_0_13_279
*482 FILLER_0_13_281
*483 FILLER_0_13_293
*484 FILLER_0_13_3
*485 FILLER_0_13_305
*486 FILLER_0_13_317
*487 FILLER_0_13_329
*488 FILLER_0_13_335
*489 FILLER_0_13_337
*490 FILLER_0_13_349
*491 FILLER_0_13_361
*492 FILLER_0_13_373
*493 FILLER_0_13_385
*494 FILLER_0_13_39
*495 FILLER_0_13_391
*496 FILLER_0_13_393
*497 FILLER_0_13_405
*498 FILLER_0_13_417
*499 FILLER_0_13_429
*500 FILLER_0_13_441
*501 FILLER_0_13_447
*502 FILLER_0_13_449
*503 FILLER_0_13_461
*504 FILLER_0_13_473
*505 FILLER_0_13_485
*506 FILLER_0_13_497
*507 FILLER_0_13_503
*508 FILLER_0_13_505
*509 FILLER_0_13_51
*510 FILLER_0_13_517
*511 FILLER_0_13_529
*512 FILLER_0_13_541
*513 FILLER_0_13_55
*514 FILLER_0_13_553
*515 FILLER_0_13_559
*516 FILLER_0_13_561
*517 FILLER_0_13_57
*518 FILLER_0_13_573
*519 FILLER_0_13_585
*520 FILLER_0_13_597
*521 FILLER_0_13_609
*522 FILLER_0_13_615
*523 FILLER_0_13_617
*524 FILLER_0_13_69
*525 FILLER_0_13_81
*526 FILLER_0_13_93
*527 FILLER_0_14_109
*528 FILLER_0_14_121
*529 FILLER_0_14_133
*530 FILLER_0_14_139
*531 FILLER_0_14_141
*532 FILLER_0_14_15
*533 FILLER_0_14_153
*534 FILLER_0_14_165
*535 FILLER_0_14_177
*536 FILLER_0_14_189
*537 FILLER_0_14_195
*538 FILLER_0_14_197
*539 FILLER_0_14_209
*540 FILLER_0_14_221
*541 FILLER_0_14_233
*542 FILLER_0_14_245
*543 FILLER_0_14_251
*544 FILLER_0_14_253
*545 FILLER_0_14_265
*546 FILLER_0_14_27
*547 FILLER_0_14_277
*548 FILLER_0_14_289
*549 FILLER_0_14_29
*550 FILLER_0_14_3
*551 FILLER_0_14_301
*552 FILLER_0_14_307
*553 FILLER_0_14_309
*554 FILLER_0_14_321
*555 FILLER_0_14_333
*556 FILLER_0_14_345
*557 FILLER_0_14_357
*558 FILLER_0_14_363
*559 FILLER_0_14_365
*560 FILLER_0_14_377
*561 FILLER_0_14_389
*562 FILLER_0_14_401
*563 FILLER_0_14_41
*564 FILLER_0_14_413
*565 FILLER_0_14_419
*566 FILLER_0_14_421
*567 FILLER_0_14_433
*568 FILLER_0_14_445
*569 FILLER_0_14_457
*570 FILLER_0_14_469
*571 FILLER_0_14_475
*572 FILLER_0_14_477
*573 FILLER_0_14_489
*574 FILLER_0_14_501
*575 FILLER_0_14_513
*576 FILLER_0_14_525
*577 FILLER_0_14_53
*578 FILLER_0_14_531
*579 FILLER_0_14_533
*580 FILLER_0_14_545
*581 FILLER_0_14_557
*582 FILLER_0_14_569
*583 FILLER_0_14_581
*584 FILLER_0_14_587
*585 FILLER_0_14_589
*586 FILLER_0_14_601
*587 FILLER_0_14_613
*588 FILLER_0_14_65
*589 FILLER_0_14_77
*590 FILLER_0_14_83
*591 FILLER_0_14_85
*592 FILLER_0_14_97
*593 FILLER_0_15_107
*594 FILLER_0_15_111
*595 FILLER_0_15_113
*596 FILLER_0_15_125
*597 FILLER_0_15_137
*598 FILLER_0_15_149
*599 FILLER_0_15_15
*600 FILLER_0_15_161
*601 FILLER_0_15_167
*602 FILLER_0_15_169
*603 FILLER_0_15_181
*604 FILLER_0_15_193
*605 FILLER_0_15_205
*606 FILLER_0_15_217
*607 FILLER_0_15_223
*608 FILLER_0_15_225
*609 FILLER_0_15_237
*610 FILLER_0_15_249
*611 FILLER_0_15_261
*612 FILLER_0_15_27
*613 FILLER_0_15_273
*614 FILLER_0_15_279
*615 FILLER_0_15_281
*616 FILLER_0_15_293
*617 FILLER_0_15_3
*618 FILLER_0_15_305
*619 FILLER_0_15_317
*620 FILLER_0_15_329
*621 FILLER_0_15_335
*622 FILLER_0_15_337
*623 FILLER_0_15_349
*624 FILLER_0_15_361
*625 FILLER_0_15_373
*626 FILLER_0_15_385
*627 FILLER_0_15_39
*628 FILLER_0_15_391
*629 FILLER_0_15_393
*630 FILLER_0_15_405
*631 FILLER_0_15_417
*632 FILLER_0_15_429
*633 FILLER_0_15_441
*634 FILLER_0_15_447
*635 FILLER_0_15_449
*636 FILLER_0_15_461
*637 FILLER_0_15_473
*638 FILLER_0_15_485
*639 FILLER_0_15_497
*640 FILLER_0_15_503
*641 FILLER_0_15_505
*642 FILLER_0_15_51
*643 FILLER_0_15_517
*644 FILLER_0_15_529
*645 FILLER_0_15_541
*646 FILLER_0_15_55
*647 FILLER_0_15_553
*648 FILLER_0_15_559
*649 FILLER_0_15_561
*650 FILLER_0_15_57
*651 FILLER_0_15_573
*652 FILLER_0_15_585
*653 FILLER_0_15_597
*654 FILLER_0_15_609
*655 FILLER_0_15_61
*656 FILLER_0_15_615
*657 FILLER_0_15_617
*658 FILLER_0_15_71
*659 FILLER_0_15_83
*660 FILLER_0_15_95
*661 FILLER_0_16_109
*662 FILLER_0_16_121
*663 FILLER_0_16_133
*664 FILLER_0_16_139
*665 FILLER_0_16_141
*666 FILLER_0_16_149
*667 FILLER_0_16_15
*668 FILLER_0_16_160
*669 FILLER_0_16_172
*670 FILLER_0_16_184
*671 FILLER_0_16_197
*672 FILLER_0_16_209
*673 FILLER_0_16_221
*674 FILLER_0_16_233
*675 FILLER_0_16_245
*676 FILLER_0_16_251
*677 FILLER_0_16_253
*678 FILLER_0_16_265
*679 FILLER_0_16_27
*680 FILLER_0_16_277
*681 FILLER_0_16_289
*682 FILLER_0_16_29
*683 FILLER_0_16_3
*684 FILLER_0_16_301
*685 FILLER_0_16_307
*686 FILLER_0_16_309
*687 FILLER_0_16_321
*688 FILLER_0_16_333
*689 FILLER_0_16_345
*690 FILLER_0_16_357
*691 FILLER_0_16_363
*692 FILLER_0_16_365
*693 FILLER_0_16_377
*694 FILLER_0_16_389
*695 FILLER_0_16_401
*696 FILLER_0_16_41
*697 FILLER_0_16_413
*698 FILLER_0_16_419
*699 FILLER_0_16_421
*700 FILLER_0_16_433
*701 FILLER_0_16_445
*702 FILLER_0_16_457
*703 FILLER_0_16_469
*704 FILLER_0_16_475
*705 FILLER_0_16_477
*706 FILLER_0_16_489
*707 FILLER_0_16_501
*708 FILLER_0_16_513
*709 FILLER_0_16_525
*710 FILLER_0_16_53
*711 FILLER_0_16_531
*712 FILLER_0_16_533
*713 FILLER_0_16_545
*714 FILLER_0_16_557
*715 FILLER_0_16_569
*716 FILLER_0_16_581
*717 FILLER_0_16_587
*718 FILLER_0_16_589
*719 FILLER_0_16_601
*720 FILLER_0_16_613
*721 FILLER_0_16_65
*722 FILLER_0_16_77
*723 FILLER_0_16_83
*724 FILLER_0_16_85
*725 FILLER_0_16_97
*726 FILLER_0_17_105
*727 FILLER_0_17_111
*728 FILLER_0_17_113
*729 FILLER_0_17_125
*730 FILLER_0_17_137
*731 FILLER_0_17_149
*732 FILLER_0_17_15
*733 FILLER_0_17_161
*734 FILLER_0_17_167
*735 FILLER_0_17_169
*736 FILLER_0_17_181
*737 FILLER_0_17_193
*738 FILLER_0_17_205
*739 FILLER_0_17_217
*740 FILLER_0_17_223
*741 FILLER_0_17_225
*742 FILLER_0_17_237
*743 FILLER_0_17_249
*744 FILLER_0_17_261
*745 FILLER_0_17_27
*746 FILLER_0_17_273
*747 FILLER_0_17_279
*748 FILLER_0_17_281
*749 FILLER_0_17_293
*750 FILLER_0_17_3
*751 FILLER_0_17_305
*752 FILLER_0_17_317
*753 FILLER_0_17_329
*754 FILLER_0_17_335
*755 FILLER_0_17_337
*756 FILLER_0_17_349
*757 FILLER_0_17_361
*758 FILLER_0_17_373
*759 FILLER_0_17_385
*760 FILLER_0_17_39
*761 FILLER_0_17_391
*762 FILLER_0_17_393
*763 FILLER_0_17_405
*764 FILLER_0_17_417
*765 FILLER_0_17_429
*766 FILLER_0_17_441
*767 FILLER_0_17_447
*768 FILLER_0_17_449
*769 FILLER_0_17_461
*770 FILLER_0_17_473
*771 FILLER_0_17_485
*772 FILLER_0_17_497
*773 FILLER_0_17_503
*774 FILLER_0_17_505
*775 FILLER_0_17_51
*776 FILLER_0_17_517
*777 FILLER_0_17_529
*778 FILLER_0_17_541
*779 FILLER_0_17_55
*780 FILLER_0_17_553
*781 FILLER_0_17_559
*782 FILLER_0_17_561
*783 FILLER_0_17_57
*784 FILLER_0_17_573
*785 FILLER_0_17_585
*786 FILLER_0_17_597
*787 FILLER_0_17_609
*788 FILLER_0_17_615
*789 FILLER_0_17_617
*790 FILLER_0_17_69
*791 FILLER_0_17_81
*792 FILLER_0_17_93
*793 FILLER_0_18_109
*794 FILLER_0_18_121
*795 FILLER_0_18_133
*796 FILLER_0_18_139
*797 FILLER_0_18_141
*798 FILLER_0_18_15
*799 FILLER_0_18_153
*800 FILLER_0_18_165
*801 FILLER_0_18_177
*802 FILLER_0_18_189
*803 FILLER_0_18_195
*804 FILLER_0_18_197
*805 FILLER_0_18_209
*806 FILLER_0_18_221
*807 FILLER_0_18_233
*808 FILLER_0_18_245
*809 FILLER_0_18_251
*810 FILLER_0_18_253
*811 FILLER_0_18_265
*812 FILLER_0_18_27
*813 FILLER_0_18_277
*814 FILLER_0_18_289
*815 FILLER_0_18_29
*816 FILLER_0_18_3
*817 FILLER_0_18_301
*818 FILLER_0_18_307
*819 FILLER_0_18_309
*820 FILLER_0_18_321
*821 FILLER_0_18_333
*822 FILLER_0_18_345
*823 FILLER_0_18_357
*824 FILLER_0_18_363
*825 FILLER_0_18_365
*826 FILLER_0_18_377
*827 FILLER_0_18_389
*828 FILLER_0_18_401
*829 FILLER_0_18_41
*830 FILLER_0_18_413
*831 FILLER_0_18_419
*832 FILLER_0_18_421
*833 FILLER_0_18_433
*834 FILLER_0_18_445
*835 FILLER_0_18_457
*836 FILLER_0_18_469
*837 FILLER_0_18_475
*838 FILLER_0_18_477
*839 FILLER_0_18_489
*840 FILLER_0_18_501
*841 FILLER_0_18_513
*842 FILLER_0_18_525
*843 FILLER_0_18_53
*844 FILLER_0_18_531
*845 FILLER_0_18_533
*846 FILLER_0_18_545
*847 FILLER_0_18_557
*848 FILLER_0_18_569
*849 FILLER_0_18_581
*850 FILLER_0_18_587
*851 FILLER_0_18_589
*852 FILLER_0_18_601
*853 FILLER_0_18_613
*854 FILLER_0_18_65
*855 FILLER_0_18_77
*856 FILLER_0_18_83
*857 FILLER_0_18_85
*858 FILLER_0_18_97
*859 FILLER_0_19_105
*860 FILLER_0_19_111
*861 FILLER_0_19_113
*862 FILLER_0_19_125
*863 FILLER_0_19_137
*864 FILLER_0_19_149
*865 FILLER_0_19_15
*866 FILLER_0_19_161
*867 FILLER_0_19_167
*868 FILLER_0_19_169
*869 FILLER_0_19_181
*870 FILLER_0_19_193
*871 FILLER_0_19_205
*872 FILLER_0_19_217
*873 FILLER_0_19_223
*874 FILLER_0_19_225
*875 FILLER_0_19_237
*876 FILLER_0_19_249
*877 FILLER_0_19_261
*878 FILLER_0_19_27
*879 FILLER_0_19_273
*880 FILLER_0_19_279
*881 FILLER_0_19_281
*882 FILLER_0_19_293
*883 FILLER_0_19_3
*884 FILLER_0_19_305
*885 FILLER_0_19_317
*886 FILLER_0_19_329
*887 FILLER_0_19_335
*888 FILLER_0_19_337
*889 FILLER_0_19_349
*890 FILLER_0_19_361
*891 FILLER_0_19_373
*892 FILLER_0_19_385
*893 FILLER_0_19_39
*894 FILLER_0_19_391
*895 FILLER_0_19_393
*896 FILLER_0_19_405
*897 FILLER_0_19_417
*898 FILLER_0_19_429
*899 FILLER_0_19_441
*900 FILLER_0_19_447
*901 FILLER_0_19_449
*902 FILLER_0_19_461
*903 FILLER_0_19_473
*904 FILLER_0_19_485
*905 FILLER_0_19_497
*906 FILLER_0_19_503
*907 FILLER_0_19_505
*908 FILLER_0_19_51
*909 FILLER_0_19_517
*910 FILLER_0_19_529
*911 FILLER_0_19_541
*912 FILLER_0_19_55
*913 FILLER_0_19_553
*914 FILLER_0_19_559
*915 FILLER_0_19_561
*916 FILLER_0_19_57
*917 FILLER_0_19_573
*918 FILLER_0_19_585
*919 FILLER_0_19_597
*920 FILLER_0_19_609
*921 FILLER_0_19_615
*922 FILLER_0_19_617
*923 FILLER_0_19_69
*924 FILLER_0_19_81
*925 FILLER_0_19_93
*926 FILLER_0_1_105
*927 FILLER_0_1_111
*928 FILLER_0_1_113
*929 FILLER_0_1_125
*930 FILLER_0_1_137
*931 FILLER_0_1_149
*932 FILLER_0_1_15
*933 FILLER_0_1_161
*934 FILLER_0_1_167
*935 FILLER_0_1_169
*936 FILLER_0_1_181
*937 FILLER_0_1_193
*938 FILLER_0_1_205
*939 FILLER_0_1_217
*940 FILLER_0_1_223
*941 FILLER_0_1_225
*942 FILLER_0_1_237
*943 FILLER_0_1_249
*944 FILLER_0_1_261
*945 FILLER_0_1_27
*946 FILLER_0_1_273
*947 FILLER_0_1_279
*948 FILLER_0_1_281
*949 FILLER_0_1_293
*950 FILLER_0_1_3
*951 FILLER_0_1_305
*952 FILLER_0_1_317
*953 FILLER_0_1_329
*954 FILLER_0_1_335
*955 FILLER_0_1_337
*956 FILLER_0_1_349
*957 FILLER_0_1_361
*958 FILLER_0_1_373
*959 FILLER_0_1_385
*960 FILLER_0_1_39
*961 FILLER_0_1_391
*962 FILLER_0_1_393
*963 FILLER_0_1_405
*964 FILLER_0_1_417
*965 FILLER_0_1_429
*966 FILLER_0_1_441
*967 FILLER_0_1_447
*968 FILLER_0_1_449
*969 FILLER_0_1_461
*970 FILLER_0_1_473
*971 FILLER_0_1_485
*972 FILLER_0_1_497
*973 FILLER_0_1_503
*974 FILLER_0_1_505
*975 FILLER_0_1_51
*976 FILLER_0_1_517
*977 FILLER_0_1_529
*978 FILLER_0_1_541
*979 FILLER_0_1_55
*980 FILLER_0_1_553
*981 FILLER_0_1_559
*982 FILLER_0_1_561
*983 FILLER_0_1_57
*984 FILLER_0_1_573
*985 FILLER_0_1_585
*986 FILLER_0_1_597
*987 FILLER_0_1_609
*988 FILLER_0_1_615
*989 FILLER_0_1_617
*990 FILLER_0_1_69
*991 FILLER_0_1_81
*992 FILLER_0_1_93
*993 FILLER_0_20_109
*994 FILLER_0_20_121
*995 FILLER_0_20_133
*996 FILLER_0_20_139
*997 FILLER_0_20_141
*998 FILLER_0_20_15
*999 FILLER_0_20_153
*1000 FILLER_0_20_165
*1001 FILLER_0_20_177
*1002 FILLER_0_20_189
*1003 FILLER_0_20_195
*1004 FILLER_0_20_197
*1005 FILLER_0_20_209
*1006 FILLER_0_20_221
*1007 FILLER_0_20_233
*1008 FILLER_0_20_245
*1009 FILLER_0_20_251
*1010 FILLER_0_20_253
*1011 FILLER_0_20_265
*1012 FILLER_0_20_27
*1013 FILLER_0_20_277
*1014 FILLER_0_20_289
*1015 FILLER_0_20_29
*1016 FILLER_0_20_3
*1017 FILLER_0_20_301
*1018 FILLER_0_20_307
*1019 FILLER_0_20_309
*1020 FILLER_0_20_321
*1021 FILLER_0_20_333
*1022 FILLER_0_20_345
*1023 FILLER_0_20_357
*1024 FILLER_0_20_363
*1025 FILLER_0_20_365
*1026 FILLER_0_20_377
*1027 FILLER_0_20_389
*1028 FILLER_0_20_401
*1029 FILLER_0_20_41
*1030 FILLER_0_20_413
*1031 FILLER_0_20_419
*1032 FILLER_0_20_421
*1033 FILLER_0_20_433
*1034 FILLER_0_20_445
*1035 FILLER_0_20_457
*1036 FILLER_0_20_469
*1037 FILLER_0_20_475
*1038 FILLER_0_20_477
*1039 FILLER_0_20_489
*1040 FILLER_0_20_501
*1041 FILLER_0_20_513
*1042 FILLER_0_20_525
*1043 FILLER_0_20_53
*1044 FILLER_0_20_531
*1045 FILLER_0_20_533
*1046 FILLER_0_20_545
*1047 FILLER_0_20_557
*1048 FILLER_0_20_569
*1049 FILLER_0_20_581
*1050 FILLER_0_20_587
*1051 FILLER_0_20_589
*1052 FILLER_0_20_601
*1053 FILLER_0_20_613
*1054 FILLER_0_20_617
*1055 FILLER_0_20_620
*1056 FILLER_0_20_65
*1057 FILLER_0_20_77
*1058 FILLER_0_20_83
*1059 FILLER_0_20_85
*1060 FILLER_0_20_97
*1061 FILLER_0_21_105
*1062 FILLER_0_21_111
*1063 FILLER_0_21_113
*1064 FILLER_0_21_125
*1065 FILLER_0_21_137
*1066 FILLER_0_21_149
*1067 FILLER_0_21_15
*1068 FILLER_0_21_161
*1069 FILLER_0_21_167
*1070 FILLER_0_21_169
*1071 FILLER_0_21_181
*1072 FILLER_0_21_193
*1073 FILLER_0_21_205
*1074 FILLER_0_21_217
*1075 FILLER_0_21_223
*1076 FILLER_0_21_225
*1077 FILLER_0_21_237
*1078 FILLER_0_21_249
*1079 FILLER_0_21_261
*1080 FILLER_0_21_27
*1081 FILLER_0_21_273
*1082 FILLER_0_21_279
*1083 FILLER_0_21_281
*1084 FILLER_0_21_293
*1085 FILLER_0_21_3
*1086 FILLER_0_21_305
*1087 FILLER_0_21_317
*1088 FILLER_0_21_329
*1089 FILLER_0_21_335
*1090 FILLER_0_21_337
*1091 FILLER_0_21_349
*1092 FILLER_0_21_361
*1093 FILLER_0_21_373
*1094 FILLER_0_21_385
*1095 FILLER_0_21_39
*1096 FILLER_0_21_391
*1097 FILLER_0_21_393
*1098 FILLER_0_21_405
*1099 FILLER_0_21_417
*1100 FILLER_0_21_429
*1101 FILLER_0_21_441
*1102 FILLER_0_21_447
*1103 FILLER_0_21_449
*1104 FILLER_0_21_461
*1105 FILLER_0_21_473
*1106 FILLER_0_21_485
*1107 FILLER_0_21_497
*1108 FILLER_0_21_503
*1109 FILLER_0_21_505
*1110 FILLER_0_21_51
*1111 FILLER_0_21_517
*1112 FILLER_0_21_529
*1113 FILLER_0_21_541
*1114 FILLER_0_21_55
*1115 FILLER_0_21_553
*1116 FILLER_0_21_559
*1117 FILLER_0_21_561
*1118 FILLER_0_21_57
*1119 FILLER_0_21_573
*1120 FILLER_0_21_585
*1121 FILLER_0_21_597
*1122 FILLER_0_21_609
*1123 FILLER_0_21_615
*1124 FILLER_0_21_617
*1125 FILLER_0_21_69
*1126 FILLER_0_21_81
*1127 FILLER_0_21_93
*1128 FILLER_0_22_109
*1129 FILLER_0_22_121
*1130 FILLER_0_22_133
*1131 FILLER_0_22_139
*1132 FILLER_0_22_141
*1133 FILLER_0_22_15
*1134 FILLER_0_22_153
*1135 FILLER_0_22_165
*1136 FILLER_0_22_177
*1137 FILLER_0_22_189
*1138 FILLER_0_22_195
*1139 FILLER_0_22_197
*1140 FILLER_0_22_209
*1141 FILLER_0_22_221
*1142 FILLER_0_22_233
*1143 FILLER_0_22_245
*1144 FILLER_0_22_251
*1145 FILLER_0_22_253
*1146 FILLER_0_22_265
*1147 FILLER_0_22_27
*1148 FILLER_0_22_277
*1149 FILLER_0_22_289
*1150 FILLER_0_22_29
*1151 FILLER_0_22_3
*1152 FILLER_0_22_301
*1153 FILLER_0_22_307
*1154 FILLER_0_22_309
*1155 FILLER_0_22_321
*1156 FILLER_0_22_333
*1157 FILLER_0_22_345
*1158 FILLER_0_22_357
*1159 FILLER_0_22_363
*1160 FILLER_0_22_365
*1161 FILLER_0_22_377
*1162 FILLER_0_22_389
*1163 FILLER_0_22_401
*1164 FILLER_0_22_41
*1165 FILLER_0_22_413
*1166 FILLER_0_22_419
*1167 FILLER_0_22_421
*1168 FILLER_0_22_433
*1169 FILLER_0_22_445
*1170 FILLER_0_22_457
*1171 FILLER_0_22_469
*1172 FILLER_0_22_475
*1173 FILLER_0_22_477
*1174 FILLER_0_22_489
*1175 FILLER_0_22_501
*1176 FILLER_0_22_513
*1177 FILLER_0_22_525
*1178 FILLER_0_22_53
*1179 FILLER_0_22_531
*1180 FILLER_0_22_533
*1181 FILLER_0_22_545
*1182 FILLER_0_22_557
*1183 FILLER_0_22_569
*1184 FILLER_0_22_581
*1185 FILLER_0_22_587
*1186 FILLER_0_22_589
*1187 FILLER_0_22_601
*1188 FILLER_0_22_613
*1189 FILLER_0_22_65
*1190 FILLER_0_22_77
*1191 FILLER_0_22_83
*1192 FILLER_0_22_85
*1193 FILLER_0_22_97
*1194 FILLER_0_23_105
*1195 FILLER_0_23_111
*1196 FILLER_0_23_113
*1197 FILLER_0_23_125
*1198 FILLER_0_23_137
*1199 FILLER_0_23_149
*1200 FILLER_0_23_15
*1201 FILLER_0_23_161
*1202 FILLER_0_23_167
*1203 FILLER_0_23_169
*1204 FILLER_0_23_181
*1205 FILLER_0_23_193
*1206 FILLER_0_23_205
*1207 FILLER_0_23_217
*1208 FILLER_0_23_223
*1209 FILLER_0_23_225
*1210 FILLER_0_23_237
*1211 FILLER_0_23_249
*1212 FILLER_0_23_261
*1213 FILLER_0_23_27
*1214 FILLER_0_23_273
*1215 FILLER_0_23_279
*1216 FILLER_0_23_281
*1217 FILLER_0_23_293
*1218 FILLER_0_23_3
*1219 FILLER_0_23_305
*1220 FILLER_0_23_317
*1221 FILLER_0_23_329
*1222 FILLER_0_23_335
*1223 FILLER_0_23_337
*1224 FILLER_0_23_349
*1225 FILLER_0_23_361
*1226 FILLER_0_23_373
*1227 FILLER_0_23_385
*1228 FILLER_0_23_39
*1229 FILLER_0_23_391
*1230 FILLER_0_23_393
*1231 FILLER_0_23_405
*1232 FILLER_0_23_417
*1233 FILLER_0_23_429
*1234 FILLER_0_23_441
*1235 FILLER_0_23_447
*1236 FILLER_0_23_449
*1237 FILLER_0_23_461
*1238 FILLER_0_23_473
*1239 FILLER_0_23_485
*1240 FILLER_0_23_497
*1241 FILLER_0_23_503
*1242 FILLER_0_23_505
*1243 FILLER_0_23_51
*1244 FILLER_0_23_517
*1245 FILLER_0_23_529
*1246 FILLER_0_23_541
*1247 FILLER_0_23_55
*1248 FILLER_0_23_553
*1249 FILLER_0_23_559
*1250 FILLER_0_23_561
*1251 FILLER_0_23_57
*1252 FILLER_0_23_573
*1253 FILLER_0_23_585
*1254 FILLER_0_23_597
*1255 FILLER_0_23_609
*1256 FILLER_0_23_615
*1257 FILLER_0_23_617
*1258 FILLER_0_23_69
*1259 FILLER_0_23_81
*1260 FILLER_0_23_93
*1261 FILLER_0_24_109
*1262 FILLER_0_24_121
*1263 FILLER_0_24_133
*1264 FILLER_0_24_139
*1265 FILLER_0_24_141
*1266 FILLER_0_24_15
*1267 FILLER_0_24_153
*1268 FILLER_0_24_165
*1269 FILLER_0_24_177
*1270 FILLER_0_24_189
*1271 FILLER_0_24_195
*1272 FILLER_0_24_197
*1273 FILLER_0_24_209
*1274 FILLER_0_24_221
*1275 FILLER_0_24_233
*1276 FILLER_0_24_245
*1277 FILLER_0_24_251
*1278 FILLER_0_24_253
*1279 FILLER_0_24_265
*1280 FILLER_0_24_27
*1281 FILLER_0_24_277
*1282 FILLER_0_24_289
*1283 FILLER_0_24_29
*1284 FILLER_0_24_3
*1285 FILLER_0_24_301
*1286 FILLER_0_24_307
*1287 FILLER_0_24_309
*1288 FILLER_0_24_321
*1289 FILLER_0_24_333
*1290 FILLER_0_24_345
*1291 FILLER_0_24_357
*1292 FILLER_0_24_363
*1293 FILLER_0_24_365
*1294 FILLER_0_24_377
*1295 FILLER_0_24_389
*1296 FILLER_0_24_401
*1297 FILLER_0_24_41
*1298 FILLER_0_24_413
*1299 FILLER_0_24_419
*1300 FILLER_0_24_421
*1301 FILLER_0_24_433
*1302 FILLER_0_24_445
*1303 FILLER_0_24_457
*1304 FILLER_0_24_469
*1305 FILLER_0_24_475
*1306 FILLER_0_24_477
*1307 FILLER_0_24_485
*1308 FILLER_0_24_490
*1309 FILLER_0_24_502
*1310 FILLER_0_24_514
*1311 FILLER_0_24_526
*1312 FILLER_0_24_53
*1313 FILLER_0_24_533
*1314 FILLER_0_24_545
*1315 FILLER_0_24_557
*1316 FILLER_0_24_569
*1317 FILLER_0_24_581
*1318 FILLER_0_24_587
*1319 FILLER_0_24_589
*1320 FILLER_0_24_601
*1321 FILLER_0_24_613
*1322 FILLER_0_24_65
*1323 FILLER_0_24_77
*1324 FILLER_0_24_83
*1325 FILLER_0_24_85
*1326 FILLER_0_24_97
*1327 FILLER_0_25_105
*1328 FILLER_0_25_111
*1329 FILLER_0_25_113
*1330 FILLER_0_25_125
*1331 FILLER_0_25_137
*1332 FILLER_0_25_149
*1333 FILLER_0_25_15
*1334 FILLER_0_25_161
*1335 FILLER_0_25_167
*1336 FILLER_0_25_169
*1337 FILLER_0_25_181
*1338 FILLER_0_25_193
*1339 FILLER_0_25_205
*1340 FILLER_0_25_217
*1341 FILLER_0_25_223
*1342 FILLER_0_25_225
*1343 FILLER_0_25_237
*1344 FILLER_0_25_249
*1345 FILLER_0_25_261
*1346 FILLER_0_25_27
*1347 FILLER_0_25_273
*1348 FILLER_0_25_279
*1349 FILLER_0_25_281
*1350 FILLER_0_25_293
*1351 FILLER_0_25_3
*1352 FILLER_0_25_305
*1353 FILLER_0_25_317
*1354 FILLER_0_25_329
*1355 FILLER_0_25_335
*1356 FILLER_0_25_337
*1357 FILLER_0_25_349
*1358 FILLER_0_25_361
*1359 FILLER_0_25_373
*1360 FILLER_0_25_385
*1361 FILLER_0_25_39
*1362 FILLER_0_25_391
*1363 FILLER_0_25_393
*1364 FILLER_0_25_405
*1365 FILLER_0_25_417
*1366 FILLER_0_25_429
*1367 FILLER_0_25_441
*1368 FILLER_0_25_447
*1369 FILLER_0_25_449
*1370 FILLER_0_25_461
*1371 FILLER_0_25_473
*1372 FILLER_0_25_485
*1373 FILLER_0_25_497
*1374 FILLER_0_25_503
*1375 FILLER_0_25_505
*1376 FILLER_0_25_51
*1377 FILLER_0_25_517
*1378 FILLER_0_25_529
*1379 FILLER_0_25_541
*1380 FILLER_0_25_55
*1381 FILLER_0_25_553
*1382 FILLER_0_25_559
*1383 FILLER_0_25_561
*1384 FILLER_0_25_57
*1385 FILLER_0_25_573
*1386 FILLER_0_25_585
*1387 FILLER_0_25_597
*1388 FILLER_0_25_609
*1389 FILLER_0_25_615
*1390 FILLER_0_25_617
*1391 FILLER_0_25_69
*1392 FILLER_0_25_81
*1393 FILLER_0_25_93
*1394 FILLER_0_26_109
*1395 FILLER_0_26_121
*1396 FILLER_0_26_133
*1397 FILLER_0_26_139
*1398 FILLER_0_26_141
*1399 FILLER_0_26_15
*1400 FILLER_0_26_153
*1401 FILLER_0_26_165
*1402 FILLER_0_26_177
*1403 FILLER_0_26_189
*1404 FILLER_0_26_195
*1405 FILLER_0_26_197
*1406 FILLER_0_26_209
*1407 FILLER_0_26_221
*1408 FILLER_0_26_233
*1409 FILLER_0_26_245
*1410 FILLER_0_26_251
*1411 FILLER_0_26_253
*1412 FILLER_0_26_265
*1413 FILLER_0_26_27
*1414 FILLER_0_26_277
*1415 FILLER_0_26_289
*1416 FILLER_0_26_29
*1417 FILLER_0_26_3
*1418 FILLER_0_26_301
*1419 FILLER_0_26_307
*1420 FILLER_0_26_309
*1421 FILLER_0_26_321
*1422 FILLER_0_26_333
*1423 FILLER_0_26_345
*1424 FILLER_0_26_357
*1425 FILLER_0_26_363
*1426 FILLER_0_26_365
*1427 FILLER_0_26_377
*1428 FILLER_0_26_389
*1429 FILLER_0_26_401
*1430 FILLER_0_26_41
*1431 FILLER_0_26_413