*SPEF "ieee 1481-1999"
*DESIGN "ALU"
*DATE "15:08:40 Wednesday April 23, 2025"
*VENDOR "The OpenROAD Project"
*PROGRAM "OpenROAD"
*VERSION "b16bda7e82721d10566ff7e2b68f1ff0be9f9e38"
*DESIGN_FLOW "NAME_SCOPE LOCAL" "PIN_CAP NONE"
*DIVIDER /
*DELIMITER :
*BUS_DELIMITER []
*T_UNIT 1 NS
*C_UNIT 1 PF
*R_UNIT 1 OHM
*L_UNIT 1 HENRY

*NAME_MAP
*1 A[0]
*2 A[1]
*3 A[2]
*4 A[3]
*5 A[4]
*6 A[5]
*7 A[6]
*8 A[7]
*9 B[0]
*10 B[1]
*11 B[2]
*12 B[3]
*13 B[4]
*14 B[5]
*15 B[6]
*16 B[7]
*19 opcode[0]
*20 opcode[1]
*21 opcode[2]
*22 out[0]
*23 out[1]
*24 out[2]
*25 out[3]
*26 out[4]
*27 out[5]
*28 out[6]
*29 out[7]
*30 _000_
*31 _001_
*32 _002_
*33 _003_
*34 _004_
*35 _005_
*36 _006_
*37 _007_
*38 _008_
*39 _009_
*40 _010_
*41 _011_
*42 _012_
*43 _013_
*44 _014_
*45 _015_
*46 _016_
*47 _017_
*48 _018_
*49 _019_
*50 _020_
*51 _021_
*52 _022_
*53 _023_
*54 _024_
*55 _025_
*56 _026_
*57 _027_
*58 _028_
*59 _029_
*60 _030_
*61 _031_
*62 _032_
*63 _033_
*64 _034_
*65 _035_
*66 _036_
*67 _037_
*68 _038_
*69 _039_
*70 _040_
*71 _041_
*72 _042_
*73 _043_
*74 _044_
*75 _045_
*76 _046_
*77 _047_
*78 _048_
*79 _049_
*80 _050_
*81 _051_
*82 _052_
*83 _053_
*84 _054_
*85 _055_
*86 _056_
*87 _057_
*88 _058_
*89 _059_
*90 _060_
*91 _061_
*92 _062_
*93 _063_
*94 _064_
*95 _065_
*96 _066_
*97 _067_
*98 _068_
*99 _069_
*100 _070_
*101 _071_
*102 _072_
*103 _073_
*104 _074_
*105 _075_
*106 _076_
*107 _077_
*108 _078_
*109 _079_
*110 _080_
*111 _081_
*112 _082_
*113 _083_
*114 _084_
*115 _085_
*116 _086_
*117 _087_
*118 _088_
*119 _089_
*120 _090_
*121 _091_
*122 _092_
*123 _093_
*124 _094_
*125 _095_
*126 _096_
*127 _097_
*128 _098_
*129 _099_
*130 _100_
*131 _101_
*132 _102_
*133 _103_
*134 _104_
*135 _105_
*136 _106_
*137 _107_
*138 _108_
*139 _109_
*140 _110_
*141 _111_
*142 _112_
*143 _113_
*144 _114_
*145 _115_
*146 _116_
*147 _117_
*148 _118_
*149 _119_
*150 _120_
*151 _121_
*152 _122_
*153 _123_
*154 _124_
*155 _125_
*156 _126_
*157 _127_
*158 _128_
*159 _129_
*160 _130_
*161 _131_
*162 _132_
*163 _133_
*164 _134_
*165 _135_
*166 _136_
*167 _137_
*168 _138_
*169 _139_
*170 _140_
*171 _141_
*172 _142_
*173 _143_
*174 _144_
*175 _145_
*176 _146_
*177 _147_
*178 _148_
*179 _149_
*180 _150_
*181 _151_
*182 _152_
*183 _153_
*184 _154_
*185 _155_
*186 _156_
*187 _157_
*188 _158_
*189 _159_
*190 _160_
*191 _161_
*192 _162_
*193 _163_
*194 _164_
*195 _165_
*196 _166_
*197 _167_
*198 _168_
*199 _169_
*200 _170_
*201 _171_
*202 _172_
*203 _173_
*204 _174_
*205 _175_
*206 _176_
*207 _177_
*208 _178_
*209 _179_
*210 _180_
*211 _181_
*212 _182_
*213 _183_
*214 _184_
*215 _185_
*216 _186_
*217 _187_
*218 _188_
*219 _189_
*220 _190_
*221 _191_
*222 _192_
*223 _193_
*224 _194_
*225 _195_
*226 _196_
*227 _197_
*228 _198_
*229 _199_
*230 _200_
*231 _201_
*232 _202_
*233 _203_
*234 _204_
*235 _205_
*236 _206_
*237 _207_
*238 _208_
*239 _209_
*240 _210_
*241 _211_
*242 _212_
*243 _213_
*244 _214_
*245 _215_
*246 _216_
*247 _217_
*248 _218_
*249 _219_
*250 _220_
*251 _221_
*252 _222_
*253 _223_
*254 _224_
*255 _225_
*256 _226_
*257 _227_
*258 _228_
*259 _229_
*260 _230_
*261 _231_
*262 _232_
*263 _233_
*264 _234_
*265 _235_
*266 _236_
*267 _237_
*268 _238_
*269 _239_
*270 _240_
*271 _241_
*272 _242_
*273 _243_
*274 _244_
*275 _245_
*276 _246_
*277 _247_
*278 net1
*279 net10
*280 net11
*281 net12
*282 net13
*283 net14
*284 net15
*285 net16
*286 net17
*287 net18
*288 net19
*289 net2
*290 net20
*291 net21
*292 net22
*293 net23
*294 net24
*295 net25
*296 net26
*297 net27
*298 net28
*299 net29
*300 net3
*301 net30
*302 net31
*303 net32
*304 net33
*305 net34
*306 net35
*307 net36
*308 net37
*309 net38
*310 net39
*311 net4
*312 net40
*313 net41
*314 net42
*315 net43
*316 net44
*317 net45
*318 net46
*319 net47
*320 net48
*321 net49
*322 net5
*323 net50
*324 net51
*325 net52
*326 net53
*327 net54
*328 net55
*329 net56
*330 net57
*331 net58
*332 net59
*333 net6
*334 net60
*335 net61
*336 net62
*337 net7
*338 net8
*339 net9
*340 ANTENNA_1
*341 ANTENNA_10
*342 ANTENNA_11
*343 ANTENNA_12
*344 ANTENNA_13
*345 ANTENNA_14
*346 ANTENNA_15
*347 ANTENNA_16
*348 ANTENNA_17
*349 ANTENNA_18
*350 ANTENNA_19
*351 ANTENNA_2
*352 ANTENNA_20
*353 ANTENNA_21
*354 ANTENNA_22
*355 ANTENNA_23
*356 ANTENNA_24
*357 ANTENNA_25
*358 ANTENNA_26
*359 ANTENNA_27
*360 ANTENNA_28
*361 ANTENNA_29
*362 ANTENNA_3
*363 ANTENNA_30
*364 ANTENNA_4
*365 ANTENNA_5
*366 ANTENNA_6
*367 ANTENNA_7
*368 ANTENNA_8
*369 ANTENNA_9
*370 FILLER_0_0_109
*371 FILLER_0_0_113
*372 FILLER_0_0_125
*373 FILLER_0_0_137
*374 FILLER_0_0_141
*375 FILLER_0_0_15
*376 FILLER_0_0_153
*377 FILLER_0_0_165
*378 FILLER_0_0_169
*379 FILLER_0_0_181
*380 FILLER_0_0_193
*381 FILLER_0_0_197
*382 FILLER_0_0_218
*383 FILLER_0_0_225
*384 FILLER_0_0_237
*385 FILLER_0_0_249
*386 FILLER_0_0_253
*387 FILLER_0_0_265
*388 FILLER_0_0_27
*389 FILLER_0_0_277
*390 FILLER_0_0_281
*391 FILLER_0_0_29
*392 FILLER_0_0_293
*393 FILLER_0_0_3
*394 FILLER_0_0_305
*395 FILLER_0_0_309
*396 FILLER_0_0_321
*397 FILLER_0_0_333
*398 FILLER_0_0_337
*399 FILLER_0_0_349
*400 FILLER_0_0_357
*401 FILLER_0_0_363
*402 FILLER_0_0_377
*403 FILLER_0_0_389
*404 FILLER_0_0_393
*405 FILLER_0_0_405
*406 FILLER_0_0_41
*407 FILLER_0_0_53
*408 FILLER_0_0_57
*409 FILLER_0_0_72
*410 FILLER_0_0_85
*411 FILLER_0_0_97
*412 FILLER_0_10_103
*413 FILLER_0_10_115
*414 FILLER_0_10_127
*415 FILLER_0_10_139
*416 FILLER_0_10_141
*417 FILLER_0_10_15
*418 FILLER_0_10_153
*419 FILLER_0_10_165
*420 FILLER_0_10_177
*421 FILLER_0_10_189
*422 FILLER_0_10_195
*423 FILLER_0_10_197
*424 FILLER_0_10_209
*425 FILLER_0_10_221
*426 FILLER_0_10_233
*427 FILLER_0_10_245
*428 FILLER_0_10_251
*429 FILLER_0_10_253
*430 FILLER_0_10_265
*431 FILLER_0_10_27
*432 FILLER_0_10_277
*433 FILLER_0_10_289
*434 FILLER_0_10_29
*435 FILLER_0_10_301
*436 FILLER_0_10_307
*437 FILLER_0_10_309
*438 FILLER_0_10_317
*439 FILLER_0_10_328
*440 FILLER_0_10_340
*441 FILLER_0_10_352
*442 FILLER_0_10_365
*443 FILLER_0_10_373
*444 FILLER_0_10_385
*445 FILLER_0_10_397
*446 FILLER_0_10_41
*447 FILLER_0_10_53
*448 FILLER_0_10_61
*449 FILLER_0_10_76
*450 FILLER_0_10_85
*451 FILLER_0_10_91
*452 FILLER_0_11_105
*453 FILLER_0_11_111
*454 FILLER_0_11_113
*455 FILLER_0_11_125
*456 FILLER_0_11_148
*457 FILLER_0_11_15
*458 FILLER_0_11_160
*459 FILLER_0_11_169
*460 FILLER_0_11_181
*461 FILLER_0_11_193
*462 FILLER_0_11_205
*463 FILLER_0_11_217
*464 FILLER_0_11_223
*465 FILLER_0_11_232
*466 FILLER_0_11_240
*467 FILLER_0_11_252
*468 FILLER_0_11_264
*469 FILLER_0_11_27
*470 FILLER_0_11_276
*471 FILLER_0_11_281
*472 FILLER_0_11_285
*473 FILLER_0_11_291
*474 FILLER_0_11_3
*475 FILLER_0_11_303
*476 FILLER_0_11_315
*477 FILLER_0_11_327
*478 FILLER_0_11_335
*479 FILLER_0_11_337
*480 FILLER_0_11_349
*481 FILLER_0_11_361
*482 FILLER_0_11_373
*483 FILLER_0_11_385
*484 FILLER_0_11_39
*485 FILLER_0_11_391
*486 FILLER_0_11_393
*487 FILLER_0_11_405
*488 FILLER_0_11_51
*489 FILLER_0_11_55
*490 FILLER_0_11_57
*491 FILLER_0_11_69
*492 FILLER_0_11_81
*493 FILLER_0_11_93
*494 FILLER_0_12_111
*495 FILLER_0_12_123
*496 FILLER_0_12_135
*497 FILLER_0_12_139
*498 FILLER_0_12_15
*499 FILLER_0_12_154
*500 FILLER_0_12_166
*501 FILLER_0_12_178
*502 FILLER_0_12_187
*503 FILLER_0_12_195
*504 FILLER_0_12_197
*505 FILLER_0_12_209
*506 FILLER_0_12_221
*507 FILLER_0_12_233
*508 FILLER_0_12_245
*509 FILLER_0_12_251
*510 FILLER_0_12_253
*511 FILLER_0_12_265
*512 FILLER_0_12_27
*513 FILLER_0_12_277
*514 FILLER_0_12_289
*515 FILLER_0_12_29
*516 FILLER_0_12_3
*517 FILLER_0_12_301
*518 FILLER_0_12_307
*519 FILLER_0_12_309
*520 FILLER_0_12_321
*521 FILLER_0_12_333
*522 FILLER_0_12_341
*523 FILLER_0_12_353
*524 FILLER_0_12_361
*525 FILLER_0_12_365
*526 FILLER_0_12_377
*527 FILLER_0_12_389
*528 FILLER_0_12_401
*529 FILLER_0_12_41
*530 FILLER_0_12_53
*531 FILLER_0_12_57
*532 FILLER_0_12_65
*533 FILLER_0_12_77
*534 FILLER_0_12_83
*535 FILLER_0_12_85
*536 FILLER_0_12_99
*537 FILLER_0_13_105
*538 FILLER_0_13_111
*539 FILLER_0_13_113
*540 FILLER_0_13_125
*541 FILLER_0_13_137
*542 FILLER_0_13_149
*543 FILLER_0_13_15
*544 FILLER_0_13_161
*545 FILLER_0_13_167
*546 FILLER_0_13_169
*547 FILLER_0_13_181
*548 FILLER_0_13_193
*549 FILLER_0_13_205
*550 FILLER_0_13_217
*551 FILLER_0_13_223
*552 FILLER_0_13_238
*553 FILLER_0_13_250
*554 FILLER_0_13_262
*555 FILLER_0_13_274
*556 FILLER_0_13_281
*557 FILLER_0_13_29
*558 FILLER_0_13_293
*559 FILLER_0_13_3
*560 FILLER_0_13_301
*561 FILLER_0_13_321
*562 FILLER_0_13_333
*563 FILLER_0_13_337
*564 FILLER_0_13_349
*565 FILLER_0_13_361
*566 FILLER_0_13_373
*567 FILLER_0_13_385
*568 FILLER_0_13_391
*569 FILLER_0_13_393
*570 FILLER_0_13_406
*571 FILLER_0_13_41
*572 FILLER_0_13_53
*573 FILLER_0_13_57
*574 FILLER_0_13_69
*575 FILLER_0_13_81
*576 FILLER_0_13_93
*577 FILLER_0_14_109
*578 FILLER_0_14_121
*579 FILLER_0_14_133
*580 FILLER_0_14_139
*581 FILLER_0_14_141
*582 FILLER_0_14_15
*583 FILLER_0_14_153
*584 FILLER_0_14_161
*585 FILLER_0_14_173
*586 FILLER_0_14_181
*587 FILLER_0_14_187
*588 FILLER_0_14_195
*589 FILLER_0_14_197
*590 FILLER_0_14_209
*591 FILLER_0_14_221
*592 FILLER_0_14_233
*593 FILLER_0_14_245
*594 FILLER_0_14_251
*595 FILLER_0_14_253
*596 FILLER_0_14_265
*597 FILLER_0_14_27
*598 FILLER_0_14_277
*599 FILLER_0_14_289
*600 FILLER_0_14_29
*601 FILLER_0_14_3
*602 FILLER_0_14_301
*603 FILLER_0_14_307
*604 FILLER_0_14_309
*605 FILLER_0_14_321
*606 FILLER_0_14_333
*607 FILLER_0_14_341
*608 FILLER_0_14_365
*609 FILLER_0_14_377
*610 FILLER_0_14_389
*611 FILLER_0_14_401
*612 FILLER_0_14_41
*613 FILLER_0_14_53
*614 FILLER_0_14_65
*615 FILLER_0_14_77
*616 FILLER_0_14_83
*617 FILLER_0_14_85
*618 FILLER_0_14_97
*619 FILLER_0_15_111
*620 FILLER_0_15_113
*621 FILLER_0_15_125
*622 FILLER_0_15_137
*623 FILLER_0_15_149
*624 FILLER_0_15_15
*625 FILLER_0_15_161
*626 FILLER_0_15_167
*627 FILLER_0_15_169
*628 FILLER_0_15_174
*629 FILLER_0_15_184
*630 FILLER_0_15_196
*631 FILLER_0_15_208
*632 FILLER_0_15_220
*633 FILLER_0_15_225
*634 FILLER_0_15_237
*635 FILLER_0_15_249
*636 FILLER_0_15_261
*637 FILLER_0_15_27
*638 FILLER_0_15_273
*639 FILLER_0_15_279
*640 FILLER_0_15_281
*641 FILLER_0_15_293
*642 FILLER_0_15_3
*643 FILLER_0_15_305
*644 FILLER_0_15_313
*645 FILLER_0_15_324
*646 FILLER_0_15_337
*647 FILLER_0_15_349
*648 FILLER_0_15_361
*649 FILLER_0_15_376
*650 FILLER_0_15_388
*651 FILLER_0_15_39
*652 FILLER_0_15_393
*653 FILLER_0_15_405
*654 FILLER_0_15_51
*655 FILLER_0_15_55
*656 FILLER_0_15_57
*657 FILLER_0_15_65
*658 FILLER_0_15_75
*659 FILLER_0_15_87
*660 FILLER_0_15_99
*661 FILLER_0_16_109
*662 FILLER_0_16_121
*663 FILLER_0_16_133
*664 FILLER_0_16_139
*665 FILLER_0_16_141
*666 FILLER_0_16_15
*667 FILLER_0_16_153
*668 FILLER_0_16_161
*669 FILLER_0_16_174
*670 FILLER_0_16_186
*671 FILLER_0_16_194
*672 FILLER_0_16_197
*673 FILLER_0_16_209
*674 FILLER_0_16_221
*675 FILLER_0_16_229
*676 FILLER_0_16_239
*677 FILLER_0_16_251
*678 FILLER_0_16_253
*679 FILLER_0_16_265
*680 FILLER_0_16_27
*681 FILLER_0_16_277
*682 FILLER_0_16_289
*683 FILLER_0_16_29
*684 FILLER_0_16_3
*685 FILLER_0_16_301
*686 FILLER_0_16_307
*687 FILLER_0_16_309
*688 FILLER_0_16_321
*689 FILLER_0_16_327
*690 FILLER_0_16_335
*691 FILLER_0_16_347
*692 FILLER_0_16_359
*693 FILLER_0_16_363
*694 FILLER_0_16_365
*695 FILLER_0_16_377
*696 FILLER_0_16_389
*697 FILLER_0_16_401
*698 FILLER_0_16_41
*699 FILLER_0_16_53
*700 FILLER_0_16_61
*701 FILLER_0_16_68
*702 FILLER_0_16_80
*703 FILLER_0_16_85
*704 FILLER_0_16_97
*705 FILLER_0_17_101
*706 FILLER_0_17_109
*707 FILLER_0_17_113
*708 FILLER_0_17_119
*709 FILLER_0_17_128
*710 FILLER_0_17_140
*711 FILLER_0_17_15
*712 FILLER_0_17_152
*713 FILLER_0_17_164
*714 FILLER_0_17_169
*715 FILLER_0_17_181
*716 FILLER_0_17_193
*717 FILLER_0_17_205
*718 FILLER_0_17_217
*719 FILLER_0_17_223
*720 FILLER_0_17_225
*721 FILLER_0_17_237
*722 FILLER_0_17_249
*723 FILLER_0_17_261
*724 FILLER_0_17_27
*725 FILLER_0_17_273
*726 FILLER_0_17_279
*727 FILLER_0_17_281
*728 FILLER_0_17_293
*729 FILLER_0_17_3
*730 FILLER_0_17_305
*731 FILLER_0_17_317
*732 FILLER_0_17_329
*733 FILLER_0_17_335
*734 FILLER_0_17_337
*735 FILLER_0_17_349
*736 FILLER_0_17_361
*737 FILLER_0_17_373
*738 FILLER_0_17_385
*739 FILLER_0_17_39
*740 FILLER_0_17_391
*741 FILLER_0_17_406
*742 FILLER_0_17_51
*743 FILLER_0_17_55
*744 FILLER_0_17_57
*745 FILLER_0_17_69
*746 FILLER_0_17_81
*747 FILLER_0_17_93
*748 FILLER_0_18_109
*749 FILLER_0_18_115
*750 FILLER_0_18_123
*751 FILLER_0_18_135
*752 FILLER_0_18_139
*753 FILLER_0_18_15
*754 FILLER_0_18_153
*755 FILLER_0_18_165
*756 FILLER_0_18_177
*757 FILLER_0_18_183
*758 FILLER_0_18_195
*759 FILLER_0_18_197
*760 FILLER_0_18_203
*761 FILLER_0_18_218
*762 FILLER_0_18_230
*763 FILLER_0_18_242
*764 FILLER_0_18_250
*765 FILLER_0_18_253
*766 FILLER_0_18_265
*767 FILLER_0_18_27
*768 FILLER_0_18_273
*769 FILLER_0_18_285
*770 FILLER_0_18_29
*771 FILLER_0_18_297
*772 FILLER_0_18_3
*773 FILLER_0_18_305
*774 FILLER_0_18_309
*775 FILLER_0_18_321
*776 FILLER_0_18_333
*777 FILLER_0_18_345
*778 FILLER_0_18_351
*779 FILLER_0_18_363
*780 FILLER_0_18_365
*781 FILLER_0_18_399
*782 FILLER_0_18_41
*783 FILLER_0_18_53
*784 FILLER_0_18_65
*785 FILLER_0_18_77
*786 FILLER_0_18_83
*787 FILLER_0_18_85
*788 FILLER_0_18_97
*789 FILLER_0_19_105
*790 FILLER_0_19_111
*791 FILLER_0_19_113
*792 FILLER_0_19_125
*793 FILLER_0_19_137
*794 FILLER_0_19_149
*795 FILLER_0_19_161
*796 FILLER_0_19_167
*797 FILLER_0_19_169
*798 FILLER_0_19_181
*799 FILLER_0_19_194
*800 FILLER_0_19_206
*801 FILLER_0_19_21
*802 FILLER_0_19_218
*803 FILLER_0_19_225
*804 FILLER_0_19_237
*805 FILLER_0_19_249
*806 FILLER_0_19_261
*807 FILLER_0_19_273
*808 FILLER_0_19_279
*809 FILLER_0_19_281
*810 FILLER_0_19_293
*811 FILLER_0_19_301
*812 FILLER_0_19_306
*813 FILLER_0_19_318
*814 FILLER_0_19_33
*815 FILLER_0_19_330
*816 FILLER_0_19_337
*817 FILLER_0_19_344
*818 FILLER_0_19_356
*819 FILLER_0_19_368
*820 FILLER_0_19_380
*821 FILLER_0_19_393
*822 FILLER_0_19_397
*823 FILLER_0_19_45
*824 FILLER_0_19_53
*825 FILLER_0_19_57
*826 FILLER_0_19_69
*827 FILLER_0_19_81
*828 FILLER_0_19_9
*829 FILLER_0_19_93
*830 FILLER_0_1_105
*831 FILLER_0_1_111
*832 FILLER_0_1_113
*833 FILLER_0_1_125
*834 FILLER_0_1_137
*835 FILLER_0_1_149
*836 FILLER_0_1_161
*837 FILLER_0_1_167
*838 FILLER_0_1_169
*839 FILLER_0_1_181
*840 FILLER_0_1_193
*841 FILLER_0_1_205
*842 FILLER_0_1_21
*843 FILLER_0_1_217
*844 FILLER_0_1_223
*845 FILLER_0_1_225
*846 FILLER_0_1_237
*847 FILLER_0_1_249
*848 FILLER_0_1_261
*849 FILLER_0_1_273
*850 FILLER_0_1_279
*851 FILLER_0_1_281
*852 FILLER_0_1_293
*853 FILLER_0_1_305
*854 FILLER_0_1_317
*855 FILLER_0_1_33
*856 FILLER_0_1_335
*857 FILLER_0_1_337
*858 FILLER_0_1_349
*859 FILLER_0_1_353
*860 FILLER_0_1_366
*861 FILLER_0_1_377
*862 FILLER_0_1_389
*863 FILLER_0_1_393
*864 FILLER_0_1_45
*865 FILLER_0_1_53
*866 FILLER_0_1_57
*867 FILLER_0_1_69
*868 FILLER_0_1_81
*869 FILLER_0_1_9
*870 FILLER_0_1_93
*871 FILLER_0_20_100
*872 FILLER_0_20_108
*873 FILLER_0_20_126
*874 FILLER_0_20_138
*875 FILLER_0_20_15
*876 FILLER_0_20_153
*877 FILLER_0_20_165
*878 FILLER_0_20_182
*879 FILLER_0_20_194
*880 FILLER_0_20_197
*881 FILLER_0_20_226
*882 FILLER_0_20_244
*883 FILLER_0_20_253
*884 FILLER_0_20_26
*885 FILLER_0_20_265
*886 FILLER_0_20_277
*887 FILLER_0_20_289
*888 FILLER_0_20_29
*889 FILLER_0_20_3
*890 FILLER_0_20_301
*891 FILLER_0_20_307
*892 FILLER_0_20_309
*893 FILLER_0_20_321
*894 FILLER_0_20_336
*895 FILLER_0_20_349
*896 FILLER_0_20_361
*897 FILLER_0_20_365
*898 FILLER_0_20_377
*899 FILLER_0_20_389
*900 FILLER_0_20_401
*901 FILLER_0_20_41
*902 FILLER_0_20_53
*903 FILLER_0_20_65
*904 FILLER_0_20_77
*905 FILLER_0_20_83
*906 FILLER_0_20_85
*907 FILLER_0_21_105
*908 FILLER_0_21_11
*909 FILLER_0_21_111
*910 FILLER_0_21_113
*911 FILLER_0_21_125
*912 FILLER_0_21_133
*913 FILLER_0_21_138
*914 FILLER_0_21_145
*915 FILLER_0_21_157
*916 FILLER_0_21_165
*917 FILLER_0_21_169
*918 FILLER_0_21_180
*919 FILLER_0_21_19
*920 FILLER_0_21_192
*921 FILLER_0_21_204
*922 FILLER_0_21_216
*923 FILLER_0_21_225
*924 FILLER_0_21_237
*925 FILLER_0_21_249
*926 FILLER_0_21_261
*927 FILLER_0_21_273
*928 FILLER_0_21_279
*929 FILLER_0_21_281
*930 FILLER_0_21_293
*931 FILLER_0_21_3
*932 FILLER_0_21_305
*933 FILLER_0_21_31
*934 FILLER_0_21_317
*935 FILLER_0_21_332
*936 FILLER_0_21_337
*937 FILLER_0_21_349
*938 FILLER_0_21_361
*939 FILLER_0_21_373
*940 FILLER_0_21_385
*941 FILLER_0_21_391
*942 FILLER_0_21_393
*943 FILLER_0_21_403
*944 FILLER_0_21_43
*945 FILLER_0_21_55
*946 FILLER_0_21_57
*947 FILLER_0_21_69
*948 FILLER_0_21_81
*949 FILLER_0_21_93
*950 FILLER_0_22_109
*951 FILLER_0_22_12
*952 FILLER_0_22_121
*953 FILLER_0_22_133
*954 FILLER_0_22_139
*955 FILLER_0_22_141
*956 FILLER_0_22_153
*957 FILLER_0_22_165
*958 FILLER_0_22_177
*959 FILLER_0_22_189
*960 FILLER_0_22_195
*961 FILLER_0_22_197
*962 FILLER_0_22_209
*963 FILLER_0_22_221
*964 FILLER_0_22_233
*965 FILLER_0_22_24
*966 FILLER_0_22_245
*967 FILLER_0_22_251
*968 FILLER_0_22_253
*969 FILLER_0_22_265
*970 FILLER_0_22_277
*971 FILLER_0_22_289
*972 FILLER_0_22_29
*973 FILLER_0_22_3
*974 FILLER_0_22_301
*975 FILLER_0_22_307
*976 FILLER_0_22_309
*977 FILLER_0_22_321
*978 FILLER_0_22_333
*979 FILLER_0_22_346
*980 FILLER_0_22_358
*981 FILLER_0_22_365
*982 FILLER_0_22_373
*983 FILLER_0_22_382
*984 FILLER_0_22_394
*985 FILLER_0_22_406
*986 FILLER_0_22_41
*987 FILLER_0_22_53
*988 FILLER_0_22_67
*989 FILLER_0_22_7
*990 FILLER_0_22_79
*991 FILLER_0_22_83
*992 FILLER_0_22_85
*993 FILLER_0_22_97
*994 FILLER_0_23_106
*995 FILLER_0_23_113
*996 FILLER_0_23_125
*997 FILLER_0_23_137
*998 FILLER_0_23_149
*999 FILLER_0_23_15
*1000 FILLER_0_23_161
*1001 FILLER_0_23_167
*1002 FILLER_0_23_169
*1003 FILLER_0_23_181
*1004 FILLER_0_23_198
*1005 FILLER_0_23_210
*1006 FILLER_0_23_222
*1007 FILLER_0_23_225
*1008 FILLER_0_23_237
*1009 FILLER_0_23_249
*1010 FILLER_0_23_261
*1011 FILLER_0_23_27
*1012 FILLER_0_23_273
*1013 FILLER_0_23_279
*1014 FILLER_0_23_281
*1015 FILLER_0_23_293
*1016 FILLER_0_23_3
*1017 FILLER_0_23_305
*1018 FILLER_0_23_317
*1019 FILLER_0_23_329
*1020 FILLER_0_23_335
*1021 FILLER_0_23_337
*1022 FILLER_0_23_349
*1023 FILLER_0_23_361
*1024 FILLER_0_23_373
*1025 FILLER_0_23_385
*1026 FILLER_0_23_39
*1027 FILLER_0_23_391
*1028 FILLER_0_23_393
*1029 FILLER_0_23_399
*1030 FILLER_0_23_57
*1031 FILLER_0_23_61
*1032 FILLER_0_23_70
*1033 FILLER_0_23_82
*1034 FILLER_0_23_94
*1035 FILLER_0_24_109
*1036 FILLER_0_24_126
*1037 FILLER_0_24_138
*1038 FILLER_0_24_141
*1039 FILLER_0_24_15
*1040 FILLER_0_24_153
*1041 FILLER_0_24_165
*1042 FILLER_0_24_177
*1043 FILLER_0_24_189
*1044 FILLER_0_24_195
*1045 FILLER_0_24_203
*1046 FILLER_0_24_215
*1047 FILLER_0_24_227
*1048 FILLER_0_24_233
*1049 FILLER_0_24_238
*1050 FILLER_0_24_250
*1051 FILLER_0_24_253
*1052 FILLER_0_24_265
*1053 FILLER_0_24_27
*1054 FILLER_0_24_277
*1055 FILLER_0_24_289
*1056 FILLER_0_24_29
*1057 FILLER_0_24_3
*1058 FILLER_0_24_301
*1059 FILLER_0_24_307
*1060 FILLER_0_24_309
*1061 FILLER_0_24_321
*1062 FILLER_0_24_333
*1063 FILLER_0_24_345
*1064 FILLER_0_24_357
*1065 FILLER_0_24_363
*1066 FILLER_0_24_365
*1067 FILLER_0_24_373
*1068 FILLER_0_24_389
*1069 FILLER_0_24_401
*1070 FILLER_0_24_41
*1071 FILLER_0_24_53
*1072 FILLER_0_24_65
*1073 FILLER_0_24_77
*1074 FILLER_0_24_83
*1075 FILLER_0_24_85
*1076 FILLER_0_24_97
*1077 FILLER_0_25_105
*1078 FILLER_0_25_111
*1079 FILLER_0_25_125
*1080 FILLER_0_25_137
*1081 FILLER_0_25_149
*1082 FILLER_0_25_15
*1083 FILLER_0_25_161
*1084 FILLER_0_25_167
*1085 FILLER_0_25_169
*1086 FILLER_0_25_181
*1087 FILLER_0_25_204
*1088 FILLER_0_25_213
*1089 FILLER_0_25_221
*1090 FILLER_0_25_225
*1091 FILLER_0_25_23
*1092 FILLER_0_25_237
*1093 FILLER_0_25_245
*1094 FILLER_0_25_262
*1095 FILLER_0_25_274
*1096 FILLER_0_25_281
*1097 FILLER_0_25_293
*1098 FILLER_0_25_3
*1099 FILLER_0_25_305
*1100 FILLER_0_25_31
*1101 FILLER_0_25_317
*1102 FILLER_0_25_329
*1103 FILLER_0_25_335
*1104 FILLER_0_25_337
*1105 FILLER_0_25_349
*1106 FILLER_0_25_361
*1107 FILLER_0_25_373
*1108 FILLER_0_25_385
*1109 FILLER_0_25_391
*1110 FILLER_0_25_393
*1111 FILLER_0_25_405
*1112 FILLER_0_25_42
*1113 FILLER_0_25_54
*1114 FILLER_0_25_57
*1115 FILLER_0_25_69
*1116 FILLER_0_25_81
*1117 FILLER_0_25_93
*1118 FILLER_0_26_112
*1119 FILLER_0_26_124
*1120 FILLER_0_26_136
*1121 FILLER_0_26_141
*1122 FILLER_0_26_15
*1123 FILLER_0_26_153
*1124 FILLER_0_26_165
*1125 FILLER_0_26_177
*1126 FILLER_0_26_189
*1127 FILLER_0_26_195
*1128 FILLER_0_26_197
*1129 FILLER_0_26_209
*1130 FILLER_0_26_221
*1131 FILLER_0_26_233
*1132 FILLER_0_26_245
*1133 FILLER_0_26_251
*1134 FILLER_0_26_253
*1135 FILLER_0_26_265
*1136 FILLER_0_26_27
*1137 FILLER_0_26_277
*1138 FILLER_0_26_29
*1139 FILLER_0_26_293
*1140 FILLER_0_26_3
*1141 FILLER_0_26_305
*1142 FILLER_0_26_309
*1143 FILLER_0_26_321
*1144 FILLER_0_26_333
*1145 FILLER_0_26_345
*1146 FILLER_0_26_357
*1147 FILLER_0_26_363
*1148 FILLER_0_26_365
*1149 FILLER_0_26_377
*1150 FILLER_0_26_389
*1151 FILLER_0_26_401
*1152 FILLER_0_26_41
*1153 FILLER_0_26_53
*1154 FILLER_0_26_65
*1155 FILLER_0_26_77
*1156 FILLER_0_26_83
*1157 FILLER_0_26_85
*1158 FILLER_0_26_97
*1159 FILLER_0_27_105
*1160 FILLER_0_27_111
*1161 FILLER_0_27_113
*1162 FILLER_0_27_125
*1163 FILLER_0_27_133
*1164 FILLER_0_27_149
*1165 FILLER_0_27_15
*1166 FILLER_0_27_161
*1167 FILLER_0_27_167
*1168 FILLER_0_27_169
*1169 FILLER_0_27_181
*1170 FILLER_0_27_193
*1171 FILLER_0_27_205
*1172 FILLER_0_27_217
*1173 FILLER_0_27_223
*1174 FILLER_0_27_225
*1175 FILLER_0_27_237
*1176 FILLER_0_27_249
*1177 FILLER_0_27_261
*1178 FILLER_0_27_267
*1179 FILLER_0_27_27
*1180 FILLER_0_27_279
*1181 FILLER_0_27_281
*1182 FILLER_0_27_293
*1183 FILLER_0_27_3
*1184 FILLER_0_27_305
*1185 FILLER_0_27_317
*1186 FILLER_0_27_329
*1187 FILLER_0_27_335
*1188 FILLER_0_27_337
*1189 FILLER_0_27_349
*1190 FILLER_0_27_361
*1191 FILLER_0_27_373
*1192 FILLER_0_27_385
*1193 FILLER_0_27_39
*1194 FILLER_0_27_391
*1195 FILLER_0_27_393
*1196 FILLER_0_27_405
*1197 FILLER_0_27_51
*1198 FILLER_0_27_55
*1199 FILLER_0_27_57
*1200 FILLER_0_27_69
*1201 FILLER_0_27_81
*1202 FILLER_0_27_93
*1203 FILLER_0_28_109
*1204 FILLER_0_28_121
*1205 FILLER_0_28_133
*1206 FILLER_0_28_139
*1207 FILLER_0_28_141
*1208 FILLER_0_28_153
*1209 FILLER_0_28_165
*1210 FILLER_0_28_177
*1211 FILLER_0_28_189
*1212 FILLER_0_28_195
*1213 FILLER_0_28_204
*1214 FILLER_0_28_21
*1215 FILLER_0_28_216
*1216 FILLER_0_28_228
*1217 FILLER_0_28_240
*1218 FILLER_0_28_253
*1219 FILLER_0_28_262
*1220 FILLER_0_28_266
*1221 FILLER_0_28_27
*1222 FILLER_0_28_270
*1223 FILLER_0_28_282
*1224 FILLER_0_28_29
*1225 FILLER_0_28_294
*1226 FILLER_0_28_306
*1227 FILLER_0_28_309
*1228 FILLER_0_28_321
*1229 FILLER_0_28_333
*1230 FILLER_0_28_345
*1231 FILLER_0_28_357
*1232 FILLER_0_28_363
*1233 FILLER_0_28_365
*1234 FILLER_0_28_377
*1235 FILLER_0_28_389
*1236 FILLER_0_28_401
*1237 FILLER_0_28_41
*1238 FILLER_0_28_53
*1239 FILLER_0_28_65
*1240 FILLER_0_28_77
*1241 FILLER_0_28_83
*1242 FILLER_0_28_85
*1243 FILLER_0_28_9
*1244 FILLER_0_28_97
*1245 FILLER_0_29_107
*1246 FILLER_0_29_111
*1247 FILLER_0_29_113
*1248 FILLER_0_29_125
*1249 FILLER_0_29_137
*1250 FILLER_0_29_149
*1251 FILLER_0_29_15
*1252 FILLER_0_29_161
*1253 FILLER_0_29_167
*1254 FILLER_0_29_169
*1255 FILLER_0_29_181
*1256 FILLER_0_29_193
*1257 FILLER_0_29_205
*1258 FILLER_0_29_217
*1259 FILLER_0_29_223
*1260 FILLER_0_29_225
*1261 FILLER_0_29_237
*1262 FILLER_0_29_249
*1263 FILLER_0_29_253
*1264 FILLER_0_29_262
*1265 FILLER_0_29_266
*1266 FILLER_0_29_27
*1267 FILLER_0_29_274
*1268 FILLER_0_29_281
*1269 FILLER_0_29_289
*1270 FILLER_0_29_298
*1271 FILLER_0_29_3
*1272 FILLER_0_29_310
*1273 FILLER_0_29_322
*1274 FILLER_0_29_334
*1275 FILLER_0_29_337
*1276 FILLER_0_29_349
*1277 FILLER_0_29_357
*1278 FILLER_0_29_368
*1279 FILLER_0_29_380
*1280 FILLER_0_29_39
*1281 FILLER_0_29_393
*1282 FILLER_0_29_405
*1283 FILLER_0_29_51
*1284 FILLER_0_29_55
*1285 FILLER_0_29_71
*1286 FILLER_0_29_83
*1287 FILLER_0_29_95
*1288 FILLER_0_2_109
*1289 FILLER_0_2_121
*1290 FILLER_0_2_133
*1291 FILLER_0_2_139
*1292 FILLER_0_2_141
*1293 FILLER_0_2_15
*1294 FILLER_0_2_153
*1295 FILLER_0_2_161
*1296 FILLER_0_2_181
*1297 FILLER_0_2_193
*1298 FILLER_0_2_197
*1299 FILLER_0_2_209
*1300 FILLER_0_2_221
*1301 FILLER_0_2_233
*1302 FILLER_0_2_245
*1303 FILLER_0_2_251
*1304 FILLER_0_2_253
*1305 FILLER_0_2_265
*1306 FILLER_0_2_27
*1307 FILLER_0_2_277
*1308 FILLER_0_2_289
*1309 FILLER_0_2_29
*1310 FILLER_0_2_3
*1311 FILLER_0_2_301
*1312 FILLER_0_2_307
*1313 FILLER_0_2_309
*1314 FILLER_0_2_321
*1315 FILLER_0_2_333
*1316 FILLER_0_2_345
*1317 FILLER_0_2_357
*1318 FILLER_0_2_363
*1319 FILLER_0_2_365
*1320 FILLER_0_2_377
*1321 FILLER_0_2_389
*1322 FILLER_0_2_401
*1323 FILLER_0_2_41
*1324 FILLER_0_2_53
*1325 FILLER_0_2_65
*1326 FILLER_0_2_77
*1327 FILLER_0_2_83
*1328 FILLER_0_2_85
*1329 FILLER_0_2_97
*1330 FILLER_0_30_109
*1331 FILLER_0_30_121
*1332 FILLER_0_30_133
*1333 FILLER_0_30_139
*1334 FILLER_0_30_141
*1335 FILLER_0_30_15
*1336 FILLER_0_30_153
*1337 FILLER_0_30_165
*1338 FILLER_0_30_177
*1339 FILLER_0_30_189
*1340 FILLER_0_30_195
*1341 FILLER_0_30_204
*1342 FILLER_0_30_216
*1343 FILLER_0_30_228
*1344 FILLER_0_30_240
*1345 FILLER_0_30_253
*1346 FILLER_0_30_265
*1347 FILLER_0_30_27
*1348 FILLER_0_30_277
*1349 FILLER_0_30_289
*1350 FILLER_0_30_29
*1351 FILLER_0_30_3
*1352 FILLER_0_30_302
*1353 FILLER_0_30_309
*1354 FILLER_0_30_321
*1355 FILLER_0_30_333
*1356 FILLER_0_30_345
*1357 FILLER_0_30_357
*1358 FILLER_0_30_363
*1359 FILLER_0_30_379
*1360 FILLER_0_30_391
*1361 FILLER_0_30_403
*1362 FILLER_0_30_41
*1363 FILLER_0_30_53
*1364 FILLER_0_30_65
*1365 FILLER_0_30_77
*1366 FILLER_0_30_83
*1367 FILLER_0_30_85
*1368 FILLER_0_30_97
*1369 FILLER_0_31_105
*1370 FILLER_0_31_111
*1371 FILLER_0_31_113
*1372 FILLER_0_31_125
*1373 FILLER_0_31_137
*1374 FILLER_0_31_149
*1375 FILLER_0_31_15
*1376 FILLER_0_31_161
*1377 FILLER_0_31_167
*1378 FILLER_0_31_169
*1379 FILLER_0_31_181
*1380 FILLER_0_31_193
*1381 FILLER_0_31_205
*1382 FILLER_0_31_217
*1383 FILLER_0_31_223
*1384 FILLER_0_31_225
*1385 FILLER_0_31_237
*1386 FILLER_0_31_249
*1387 FILLER_0_31_261
*1388 FILLER_0_31_27
*1389 FILLER_0_31_281
*1390 FILLER_0_31_295
*1391 FILLER_0_31_3
*1392 FILLER_0_31_307
*1393 FILLER_0_31_319
*1394 FILLER_0_31_331
*1395 FILLER_0_31_335
*1396 FILLER_0_31_337
*1397 FILLER_0_31_349
*1398 FILLER_0_31_361
*1399 FILLER_0_31_373
*1400 FILLER_0_31_39
*1401 FILLER_0_31_390
*1402 FILLER_0_31_393
*1403 FILLER_0_31_405
*1404 FILLER_0_31_51
*1405 FILLER_0_31_55
*1406 FILLER_0_31_57
*1407 FILLER_0_31_69
*1408 FILLER_0_31_81
*1409 FILLER_0_31_93
*1410 FILLER_0_32_109
*1411 FILLER_0_32_121
*1412 FILLER_0_32_133
*1413 FILLER_0_32_139
*1414 FILLER_0_32_141
*1415 FILLER_0_32_15
*1416 FILLER_0_32_153
*1417 FILLER_0_32_165
*1418 FILLER_0_32_177
*1419 FILLER_0_32_189
*1420 FILLER_0_32_195
*1421 FILLER_0_32_205
*1422 FILLER_0_32_217
*1423 FILLER_0_32_229
*1424 FILLER_0_32_241
*1425 FILLER_0_32_249
*1426 FILLER_0_32_253
*1427 FILLER_0_32_265
*1428 FILLER_0_32_27
*1429 FILLER_0_32_277
*1430 FILLER_0_32_289
*1431 FILLER_0_32_3
*1432 FILLER_0_32_301
*1433 FILLER_0_32_307
*1434 FILLER_0_32_309
*1435 FILLER_0_32_321
*1436 FILLER_0_32_333
*1437 FILLER_0_32_345
*1438 FILLER_0_32_357
*1439 FILLER_0_32_363
*1440 FILLER_0_32_365
*1441 FILLER_0_32_399
*1442 FILLER_0_32_45
*1443 FILLER_0_32_57
*1444 FILLER_0_32_69
*1445 FILLER_0_32_81
*1446 FILLER_0_32_85
*1447 FILLER_0_32_97
*1448 FILLER_0_33_105
*1449 FILLER_0_33_111
*1450 FILLER_0_33_113
*1451 FILLER_0_33_125
*1452 FILLER_0_33_131
*1453 FILLER_0_33_142
*1454 FILLER_0_33_15
*1455 FILLER_0_33_154
*1456 FILLER_0_33_160
*1457 FILLER_0_33_169
*1458 FILLER_0_33_181
*1459 FILLER_0_33_193
*1460 FILLER_0_33_205
*1461 FILLER_0_33_217
*1462 FILLER_0_33_223
*1463 FILLER_0_33_225
*1464 FILLER_0_33_237
*1465 FILLER_0_33_249
*1466 FILLER_0_33_262
*1467 FILLER_0_33_27
*1468 FILLER_0_33_274
*1469 FILLER_0_33_281
*1470 FILLER_0_33_293
*1471 FILLER_0_33_3
*1472 FILLER_0_33_305
*1473 FILLER_0_33_317
*1474 FILLER_0_33_329
*1475 FILLER_0_33_335
*1476 FILLER_0_33_337
*1477 FILLER_0_33_349
*1478 FILLER_0_33_361
*1479 FILLER_0_33_373
*1480 FILLER_0_33_381
*1481 FILLER_0_33_39
*1482 FILLER_0_33_393
*1483 FILLER_0_33_405
*1484 FILLER_0_33_51
*1485 FILLER_0_33_55
*1486 FILLER_0_33_57
*1487 FILLER_0_33_69
*1488 FILLER_0_33_81
*1489 FILLER_0_33_93
*1490 FILLER_0_34_109
*1491 FILLER_0_34_115
*1492 FILLER_0_34_119
*1493 FILLER_0_34_12
*1494 FILLER_0_34_131
*1495 FILLER_0_34_139
*1496 FILLER_0_34_161
*1497 FILLER_0_34_174
*1498 FILLER_0_34_186
*1499 FILLER_0_34_194
*1500 FILLER_0_34_197
*1501 FILLER_0_34_209
*1502 FILLER_0_34_221
*1503 FILLER_0_34_233
*1504 FILLER_0_34_24
*1505 FILLER_0_34_245
*1506 FILLER_0_34_251
*1507 FILLER_0_34_253
*1508 FILLER_0_34_265
*1509 FILLER_0_34_277
*1510 FILLER_0_34_289
*1511 FILLER_0_34_29
*1512 FILLER_0_34_301
*1513 FILLER_0_34_307
*1514 FILLER_0_34_309
*1515 FILLER_0_34_321
*1516 FILLER_0_34_333
*1517 FILLER_0_34_345
*1518 FILLER_0_34_357
*1519 FILLER_0_34_363
*1520 FILLER_0_34_365
*1521 FILLER_0_34_393
*1522 FILLER_0_34_405
*1523 FILLER_0_34_41
*1524 FILLER_0_34_53
*1525 FILLER_0_34_65
*1526 FILLER_0_34_73
*1527 FILLER_0_34_81
*1528 FILLER_0_34_85
*1529 FILLER_0_34_97
*1530 FILLER_0_35_105
*1531 FILLER_0_35_111
*1532 FILLER_0_35_113
*1533 FILLER_0_35_125
*1534 FILLER_0_35_137
*1535 FILLER_0_35_149
*1536 FILLER_0_35_15
*1537 FILLER_0_35_161
*1538 FILLER_0_35_167
*1539 FILLER_0_35_169
*1540 FILLER_0_35_181
*1541 FILLER_0_35_193
*1542 FILLER_0_35_205
*1543 FILLER_0_35_217
*1544 FILLER_0_35_223
*1545 FILLER_0_35_232
*1546 FILLER_0_35_245
*1547 FILLER_0_35_257
*1548 FILLER_0_35_269
*1549 FILLER_0_35_27
*1550 FILLER_0_35_277
*1551 FILLER_0_35_281
*1552 FILLER_0_35_293
*1553 FILLER_0_35_3
*1554 FILLER_0_35_305
*1555 FILLER_0_35_317
*1556 FILLER_0_35_325
*1557 FILLER_0_35_333
*1558 FILLER_0_35_337
*1559 FILLER_0_35_349
*1560 FILLER_0_35_354
*1561 FILLER_0_35_363
*1562 FILLER_0_35_375
*1563 FILLER_0_35_387
*1564 FILLER_0_35_39
*1565 FILLER_0_35_391
*1566 FILLER_0_35_393
*1567 FILLER_0_35_405
*1568 FILLER_0_35_51
*1569 FILLER_0_35_55
*1570 FILLER_0_35_57
*1571 FILLER_0_35_69
*1572 FILLER_0_35_81
*1573 FILLER_0_35_93
*1574 FILLER_0_36_111
*1575 FILLER_0_36_123
*1576 FILLER_0_36_135
*1577 FILLER_0_36_139
*1578 FILLER_0_36_141
*1579 FILLER_0_36_147
*1580 FILLER_0_36_15
*1581 FILLER_0_36_164