* NGSPICE file created from top.ext - technology: sky130A

* Black-box entry subcircuit for sky130_fd_sc_hd__decap_6 abstract view
.subckt sky130_fd_sc_hd__decap_6 VGND VNB VPB VPWR
.ends

* Black-box entry subcircuit for sky130_ef_sc_hd__decap_12 abstract view
.subckt sky130_ef_sc_hd__decap_12 VPWR VGND VPB VNB
.ends

* Black-box entry subcircuit for sky130_fd_sc_hd__fill_1 abstract view
.subckt sky130_fd_sc_hd__fill_1 VGND VNB VPB VPWR
.ends

* Black-box entry subcircuit for sky130_fd_sc_hd__tapvpwrvgnd_1 abstract view
.subckt sky130_fd_sc_hd__tapvpwrvgnd_1 VGND VPWR
.ends

* Black-box entry subcircuit for sky130_fd_sc_hd__decap_4 abstract view
.subckt sky130_fd_sc_hd__decap_4 VGND VNB VPB VPWR
.ends

* Black-box entry subcircuit for sky130_fd_sc_hd__dfxtp_4 abstract view
.subckt sky130_fd_sc_hd__dfxtp_4 CLK D VGND VNB VPB VPWR Q
.ends

* Black-box entry subcircuit for sky130_fd_sc_hd__diode_2 abstract view
.subckt sky130_fd_sc_hd__diode_2 DIODE VGND VNB VPB VPWR
.ends

* Black-box entry subcircuit for sky130_fd_sc_hd__fill_2 abstract view
.subckt sky130_fd_sc_hd__fill_2 VGND VNB VPB VPWR
.ends

* Black-box entry subcircuit for sky130_fd_sc_hd__buf_1 abstract view
.subckt sky130_fd_sc_hd__buf_1 A VGND VNB VPB VPWR X
.ends

* Black-box entry subcircuit for sky130_fd_sc_hd__decap_3 abstract view
.subckt sky130_fd_sc_hd__decap_3 VGND VNB VPB VPWR
.ends

* Black-box entry subcircuit for sky130_fd_sc_hd__decap_8 abstract view
.subckt sky130_fd_sc_hd__decap_8 VGND VNB VPB VPWR
.ends

* Black-box entry subcircuit for sky130_fd_sc_hd__dfxtp_2 abstract view
.subckt sky130_fd_sc_hd__dfxtp_2 CLK D VGND VNB VPB VPWR Q
.ends

* Black-box entry subcircuit for sky130_fd_sc_hd__o21ai_4 abstract view
.subckt sky130_fd_sc_hd__o21ai_4 A1 A2 B1 VGND VNB VPB VPWR Y
.ends

* Black-box entry subcircuit for sky130_fd_sc_hd__buf_2 abstract view
.subckt sky130_fd_sc_hd__buf_2 A VGND VNB VPB VPWR X
.ends

* Black-box entry subcircuit for sky130_fd_sc_hd__clkbuf_4 abstract view
.subckt sky130_fd_sc_hd__clkbuf_4 A VGND VNB VPB VPWR X
.ends

* Black-box entry subcircuit for sky130_fd_sc_hd__nor2_4 abstract view
.subckt sky130_fd_sc_hd__nor2_4 A B VGND VNB VPB VPWR Y
.ends

* Black-box entry subcircuit for sky130_fd_sc_hd__and4b_2 abstract view
.subckt sky130_fd_sc_hd__and4b_2 A_N B C D VGND VNB VPB VPWR X
.ends

* Black-box entry subcircuit for sky130_fd_sc_hd__a31o_2 abstract view
.subckt sky130_fd_sc_hd__a31o_2 A1 A2 A3 B1 VGND VNB VPB VPWR X
.ends

* Black-box entry subcircuit for sky130_fd_sc_hd__nand4_4 abstract view
.subckt sky130_fd_sc_hd__nand4_4 A B C D VGND VNB VPB VPWR Y
.ends

* Black-box entry subcircuit for sky130_fd_sc_hd__and3_2 abstract view
.subckt sky130_fd_sc_hd__and3_2 A B C VGND VNB VPB VPWR X
.ends

* Black-box entry subcircuit for sky130_fd_sc_hd__clkbuf_16 abstract view
.subckt sky130_fd_sc_hd__clkbuf_16 A VGND VNB VPB VPWR X
.ends

* Black-box entry subcircuit for sky130_fd_sc_hd__or3b_4 abstract view
.subckt sky130_fd_sc_hd__or3b_4 A B C_N VGND VNB VPB VPWR X
.ends

* Black-box entry subcircuit for sky130_fd_sc_hd__or3_2 abstract view
.subckt sky130_fd_sc_hd__or3_2 A B C VGND VNB VPB VPWR X
.ends

* Black-box entry subcircuit for sky130_fd_sc_hd__or4bb_4 abstract view
.subckt sky130_fd_sc_hd__or4bb_4 A B C_N D_N VGND VNB VPB VPWR X
.ends

* Black-box entry subcircuit for sky130_fd_sc_hd__buf_6 abstract view
.subckt sky130_fd_sc_hd__buf_6 A VGND VNB VPB VPWR X
.ends

* Black-box entry subcircuit for sky130_fd_sc_hd__a21o_1 abstract view
.subckt sky130_fd_sc_hd__a21o_1 A1 A2 B1 VGND VNB VPB VPWR X
.ends

* Black-box entry subcircuit for sky130_fd_sc_hd__nand3_1 abstract view
.subckt sky130_fd_sc_hd__nand3_1 A B C VGND VNB VPB VPWR Y
.ends

* Black-box entry subcircuit for sky130_fd_sc_hd__and4b_1 abstract view
.subckt sky130_fd_sc_hd__and4b_1 A_N B C D VGND VNB VPB VPWR X
.ends

* Black-box entry subcircuit for sky130_fd_sc_hd__or2_2 abstract view
.subckt sky130_fd_sc_hd__or2_2 A B VGND VNB VPB VPWR X
.ends

* Black-box entry subcircuit for sky130_fd_sc_hd__nand2_1 abstract view
.subckt sky130_fd_sc_hd__nand2_1 A B VGND VNB VPB VPWR Y
.ends

* Black-box entry subcircuit for sky130_fd_sc_hd__nor2_2 abstract view
.subckt sky130_fd_sc_hd__nor2_2 A B VGND VNB VPB VPWR Y
.ends

* Black-box entry subcircuit for sky130_fd_sc_hd__a21boi_4 abstract view
.subckt sky130_fd_sc_hd__a21boi_4 A1 A2 B1_N VGND VNB VPB VPWR Y
.ends

* Black-box entry subcircuit for sky130_fd_sc_hd__a211o_2 abstract view
.subckt sky130_fd_sc_hd__a211o_2 A1 A2 B1 C1 VGND VNB VPB VPWR X
.ends

* Black-box entry subcircuit for sky130_fd_sc_hd__a21oi_4 abstract view
.subckt sky130_fd_sc_hd__a21oi_4 A1 A2 B1 VGND VNB VPB VPWR Y
.ends

.subckt top VGND VPWR clk out[0] out[1] out[2] out[3] out[4] out[5] out[6] rst
XFILLER_0_94_77 VGND VGND VPWR VPWR sky130_fd_sc_hd__decap_6
XFILLER_0_27_93 VPWR VGND VPWR VGND sky130_ef_sc_hd__decap_12
XFILLER_0_89_461 VPWR VGND VPWR VGND sky130_ef_sc_hd__decap_12
XFILLER_0_76_133 VGND VGND VPWR VPWR sky130_fd_sc_hd__decap_6
XFILLER_0_43_81 VPWR VGND VPWR VGND sky130_ef_sc_hd__decap_12
XFILLER_0_76_177 VPWR VGND VPWR VGND sky130_ef_sc_hd__decap_12
XFILLER_0_91_125 VPWR VGND VPWR VGND sky130_ef_sc_hd__decap_12
XFILLER_0_57_391 VGND VGND VPWR VPWR sky130_fd_sc_hd__fill_1
XFILLER_0_91_169 VPWR VGND VPWR VGND sky130_ef_sc_hd__decap_12
XFILLER_0_45_553 VGND VGND VPWR VPWR sky130_fd_sc_hd__decap_6
XFILLER_0_45_597 VPWR VGND VPWR VGND sky130_ef_sc_hd__decap_12
XFILLER_0_60_501 VPWR VGND VPWR VGND sky130_ef_sc_hd__decap_12
XFILLER_0_60_545 VPWR VGND VPWR VGND sky130_ef_sc_hd__decap_12
XFILLER_0_13_461 VPWR VGND VPWR VGND sky130_ef_sc_hd__decap_12
XFILLER_0_60_589 VPWR VGND VPWR VGND sky130_ef_sc_hd__decap_12
XFILLER_0_7_81 VPWR VGND VPWR VGND sky130_ef_sc_hd__decap_12
XFILLER_0_99_225 VPWR VGND VPWR VGND sky130_ef_sc_hd__decap_12
XFILLER_0_68_601 VPWR VGND VPWR VGND sky130_ef_sc_hd__decap_12
XFILLER_0_67_111 VGND VGND VPWR VPWR sky130_fd_sc_hd__fill_1
XFILLER_0_83_615 VGND VGND VPWR VPWR sky130_fd_sc_hd__fill_1
XFILLER_0_55_317 VPWR VGND VPWR VGND sky130_ef_sc_hd__decap_12
XFILLER_0_95_497 VGND VGND VPWR VPWR sky130_fd_sc_hd__decap_6
XFILLER_0_36_531 VGND VGND VPWR VPWR sky130_fd_sc_hd__fill_1
XFILLER_0_70_309 VPWR VGND VPWR VGND sky130_ef_sc_hd__decap_12
XTAP_TAPCELL_ROW_11_345 VGND VPWR sky130_fd_sc_hd__tapvpwrvgnd_1
XFILLER_0_63_361 VPWR VGND VPWR VGND sky130_ef_sc_hd__decap_12
XFILLER_0_23_225 VPWR VGND VPWR VGND sky130_ef_sc_hd__decap_12
XTAP_TAPCELL_ROW_97_1288 VGND VPWR sky130_fd_sc_hd__tapvpwrvgnd_1
XFILLER_0_48_15 VPWR VGND VPWR VGND sky130_ef_sc_hd__decap_12
XFILLER_0_3_39 VPWR VGND VPWR VGND sky130_ef_sc_hd__decap_12
XTAP_TAPCELL_ROW_47_732 VGND VPWR sky130_fd_sc_hd__tapvpwrvgnd_1
XTAP_TAPCELL_ROW_19_434 VGND VPWR sky130_fd_sc_hd__tapvpwrvgnd_1
XFILLER_0_58_133 VGND VGND VPWR VPWR sky130_fd_sc_hd__decap_6
XFILLER_0_86_475 VGND VGND VPWR VPWR sky130_fd_sc_hd__fill_1
XFILLER_0_13_51 VGND VGND VPWR VPWR sky130_fd_sc_hd__decap_4
XFILLER_0_58_177 VPWR VGND VPWR VGND sky130_ef_sc_hd__decap_12
XFILLER_0_73_125 VPWR VGND VPWR VGND sky130_ef_sc_hd__decap_12
XFILLER_0_39_391 VGND VGND VPWR VPWR sky130_fd_sc_hd__fill_1
XFILLER_0_73_169 VPWR VGND VPWR VGND sky130_ef_sc_hd__decap_12
XFILLER_0_6_469 VGND VGND VPWR VPWR sky130_fd_sc_hd__decap_6
XFILLER_0_27_597 VPWR VGND VPWR VGND sky130_ef_sc_hd__decap_12
XFILLER_0_42_501 VPWR VGND VPWR VGND sky130_ef_sc_hd__decap_12
XFILLER_0_89_55 VGND VGND VPWR VPWR sky130_fd_sc_hd__fill_1
XFILLER_0_42_545 VPWR VGND VPWR VGND sky130_ef_sc_hd__decap_12
XFILLER_0_42_589 VPWR VGND VPWR VGND sky130_ef_sc_hd__decap_12
XTAP_TAPCELL_ROW_74_1030 VGND VPWR sky130_fd_sc_hd__tapvpwrvgnd_1
XFILLER_0_10_475 VGND VGND VPWR VPWR sky130_fd_sc_hd__fill_1
XFILLER_0_49_111 VGND VGND VPWR VPWR sky130_fd_sc_hd__fill_1
XFILLER_0_92_401 VPWR VGND VPWR VGND sky130_ef_sc_hd__decap_12
XFILLER_0_65_615 VGND VGND VPWR VPWR sky130_fd_sc_hd__fill_1
XFILLER_0_77_497 VGND VGND VPWR VPWR sky130_fd_sc_hd__decap_6
XFILLER_0_37_317 VPWR VGND VPWR VGND sky130_ef_sc_hd__decap_12
XFILLER_0_49_188 VPWR VGND VPWR VGND sky130_ef_sc_hd__decap_12
XFILLER_0_92_445 VPWR VGND VPWR VGND sky130_ef_sc_hd__decap_12
XFILLER_0_18_531 VGND VGND VPWR VPWR sky130_fd_sc_hd__fill_1
XFILLER_0_52_309 VPWR VGND VPWR VGND sky130_ef_sc_hd__decap_12
XFILLER_0_92_489 VPWR VGND VPWR VGND sky130_ef_sc_hd__decap_12
XFILLER_0_45_361 VPWR VGND VPWR VGND sky130_ef_sc_hd__decap_12
XFILLER_0_18_29 VPWR VGND VPWR VGND sky130_ef_sc_hd__decap_12
XFILLER_0_87_217 VGND VGND VPWR VPWR sky130_fd_sc_hd__decap_6
XTAP_TAPCELL_ROW_44_702 VGND VPWR sky130_fd_sc_hd__tapvpwrvgnd_1
XFILLER_0_68_475 VGND VGND VPWR VPWR sky130_fd_sc_hd__fill_1
XFILLER_0_95_261 VPWR VGND VPWR VGND sky130_ef_sc_hd__decap_12
XFILLER_0_55_125 VPWR VGND VPWR VGND sky130_ef_sc_hd__decap_12
XTAP_TAPCELL_ROW_99_1306 VGND VPWR sky130_fd_sc_hd__tapvpwrvgnd_1
XTAP_TAPCELL_ROW_24_481 VGND VPWR sky130_fd_sc_hd__tapvpwrvgnd_1
XFILLER_0_50_27 VGND VGND VPWR VPWR sky130_fd_sc_hd__fill_1
XTAP_TAPCELL_ROW_52_790 VGND VPWR sky130_fd_sc_hd__tapvpwrvgnd_1
XFILLER_0_55_169 VPWR VGND VPWR VGND sky130_ef_sc_hd__decap_12
XFILLER_0_3_417 VPWR VGND VPWR VGND sky130_ef_sc_hd__decap_12
XFILLER_0_24_545 VPWR VGND VPWR VGND sky130_ef_sc_hd__decap_12
XFILLER_0_70_139 VGND VGND VPWR VPWR sky130_fd_sc_hd__fill_1
XFILLER_0_24_589 VPWR VGND VPWR VGND sky130_ef_sc_hd__decap_12
XFILLER_0_11_217 VGND VGND VPWR VPWR sky130_fd_sc_hd__decap_6
XFILLER_0_59_69 VPWR VGND VPWR VGND sky130_ef_sc_hd__decap_12
XFILLER_0_75_57 VPWR VGND VPWR VGND sky130_ef_sc_hd__decap_12
XFILLER_0_47_615 VGND VGND VPWR VPWR sky130_fd_sc_hd__fill_1
XFILLER_0_19_317 VPWR VGND VPWR VGND sky130_ef_sc_hd__decap_12
XFILLER_0_24_83 VGND VGND VPWR VPWR sky130_fd_sc_hd__fill_1
XFILLER_0_59_497 VGND VGND VPWR VPWR sky130_fd_sc_hd__decap_6
XFILLER_0_74_401 VPWR VGND VPWR VGND sky130_ef_sc_hd__decap_12
XFILLER_0_74_445 VPWR VGND VPWR VGND sky130_ef_sc_hd__decap_12
XFILLER_0_6_233 VPWR VGND VPWR VGND sky130_ef_sc_hd__decap_12
XFILLER_0_27_361 VPWR VGND VPWR VGND sky130_ef_sc_hd__decap_12
XFILLER_0_34_309 VPWR VGND VPWR VGND sky130_ef_sc_hd__decap_12
XFILLER_0_74_489 VPWR VGND VPWR VGND sky130_ef_sc_hd__decap_12
XFILLER_0_6_277 VPWR VGND VPWR VGND sky130_ef_sc_hd__decap_12
XFILLER_0_71_3 VPWR VGND VPWR VGND sky130_ef_sc_hd__decap_12
XFILLER_0_100_469 VGND VGND VPWR VPWR sky130_fd_sc_hd__decap_6
XFILLER_0_69_217 VGND VGND VPWR VPWR sky130_fd_sc_hd__decap_6
XFILLER_0_97_559 VGND VGND VPWR VPWR sky130_fd_sc_hd__fill_1
XFILLER_0_84_209 VPWR VGND VPWR VGND sky130_ef_sc_hd__decap_12
XTAP_TAPCELL_ROW_83_1129 VGND VPWR sky130_fd_sc_hd__tapvpwrvgnd_1
XFILLER_0_77_261 VPWR VGND VPWR VGND sky130_ef_sc_hd__decap_12
XFILLER_0_37_125 VPWR VGND VPWR VGND sky130_ef_sc_hd__decap_12
XFILLER_0_92_253 VPWR VGND VPWR VGND sky130_ef_sc_hd__decap_12
XFILLER_0_37_169 VPWR VGND VPWR VGND sky130_ef_sc_hd__decap_12
XTAP_TAPCELL_ROW_21_451 VGND VPWR sky130_fd_sc_hd__tapvpwrvgnd_1
XFILLER_0_52_139 VGND VGND VPWR VPWR sky130_fd_sc_hd__fill_1
XTAP_TAPCELL_ROW_94_1258 VGND VPWR sky130_fd_sc_hd__tapvpwrvgnd_1
XFILLER_0_21_559 VGND VGND VPWR VPWR sky130_fd_sc_hd__fill_1
XFILLER_0_29_39 VPWR VGND VPWR VGND sky130_ef_sc_hd__decap_12
XFILLER_0_45_27 VPWR VGND VPWR VGND sky130_ef_sc_hd__decap_12
XTAP_TAPCELL_ROW_29_540 VGND VPWR sky130_fd_sc_hd__tapvpwrvgnd_1
XFILLER_0_0_29 VPWR VGND VPWR VGND sky130_ef_sc_hd__decap_12
XFILLER_0_61_15 VPWR VGND VPWR VGND sky130_ef_sc_hd__decap_12
XFILLER_0_96_581 VGND VGND VPWR VPWR sky130_fd_sc_hd__decap_6
XFILLER_0_29_615 VGND VGND VPWR VPWR sky130_fd_sc_hd__fill_1
XFILLER_0_56_401 VPWR VGND VPWR VGND sky130_ef_sc_hd__decap_12
XFILLER_0_56_445 VPWR VGND VPWR VGND sky130_ef_sc_hd__decap_12
XFILLER_0_16_309 VPWR VGND VPWR VGND sky130_ef_sc_hd__decap_12
XFILLER_0_56_489 VPWR VGND VPWR VGND sky130_ef_sc_hd__decap_12
XFILLER_0_9_27 VPWR VGND VPWR VGND sky130_ef_sc_hd__decap_12
XFILLER_0_3_225 VPWR VGND VPWR VGND sky130_ef_sc_hd__decap_12
XFILLER_0_10_41 VPWR VGND VPWR VGND sky130_ef_sc_hd__decap_12
XFILLER_0_51_161 VGND VGND VPWR VPWR sky130_fd_sc_hd__decap_6
XFILLER_0_10_85 VPWR VGND VPWR VGND sky130_ef_sc_hd__decap_12
XTAP_TAPCELL_ROW_71_1000 VGND VPWR sky130_fd_sc_hd__tapvpwrvgnd_1
XFILLER_0_20_581 VGND VGND VPWR VPWR sky130_fd_sc_hd__decap_6
X_49_ clknet_1_1__leaf_clk _03_ VGND VGND VPWR VPWR display_out.in\[3\] sky130_fd_sc_hd__dfxtp_4
XFILLER_0_79_559 VGND VGND VPWR VPWR sky130_fd_sc_hd__fill_1
XFILLER_0_35_93 VPWR VGND VPWR VGND sky130_ef_sc_hd__decap_12
XFILLER_0_66_209 VPWR VGND VPWR VGND sky130_ef_sc_hd__decap_12
XFILLER_0_59_261 VPWR VGND VPWR VGND sky130_ef_sc_hd__decap_12
XFILLER_0_19_125 VPWR VGND VPWR VGND sky130_ef_sc_hd__decap_12
XFILLER_0_19_169 VPWR VGND VPWR VGND sky130_ef_sc_hd__decap_12
XFILLER_0_51_81 VPWR VGND VPWR VGND sky130_ef_sc_hd__decap_12
XFILLER_0_74_253 VPWR VGND VPWR VGND sky130_ef_sc_hd__decap_12
XFILLER_0_7_553 VGND VGND VPWR VPWR sky130_fd_sc_hd__decap_6
XFILLER_0_34_139 VGND VGND VPWR VPWR sky130_fd_sc_hd__fill_1
XFILLER_0_7_597 VPWR VGND VPWR VGND sky130_ef_sc_hd__decap_12
XFILLER_0_30_301 VGND VGND VPWR VPWR sky130_fd_sc_hd__decap_6
XFILLER_0_30_345 VPWR VGND VPWR VGND sky130_ef_sc_hd__decap_12
XFILLER_0_100_233 VPWR VGND VPWR VGND sky130_ef_sc_hd__decap_12
XFILLER_0_30_389 VPWR VGND VPWR VGND sky130_ef_sc_hd__decap_12
XTAP_TAPCELL_ROW_26_510 VGND VPWR sky130_fd_sc_hd__tapvpwrvgnd_1
XFILLER_0_85_529 VPWR VGND VPWR VGND sky130_ef_sc_hd__decap_12
XFILLER_0_78_581 VGND VGND VPWR VPWR sky130_fd_sc_hd__decap_6
XFILLER_0_38_401 VPWR VGND VPWR VGND sky130_ef_sc_hd__decap_12
XFILLER_0_93_573 VPWR VGND VPWR VGND sky130_ef_sc_hd__decap_12
XFILLER_0_38_489 VPWR VGND VPWR VGND sky130_ef_sc_hd__decap_12
XFILLER_0_80_245 VGND VGND VPWR VPWR sky130_fd_sc_hd__decap_6
XFILLER_0_80_289 VPWR VGND VPWR VGND sky130_ef_sc_hd__decap_12
XFILLER_0_33_161 VGND VGND VPWR VPWR sky130_fd_sc_hd__decap_6
XFILLER_0_40_109 VPWR VGND VPWR VGND sky130_ef_sc_hd__decap_12
XFILLER_0_56_15 VPWR VGND VPWR VGND sky130_ef_sc_hd__decap_12
XTAP_TAPCELL_ROW_6_290 VGND VPWR sky130_fd_sc_hd__tapvpwrvgnd_1
XFILLER_0_88_345 VPWR VGND VPWR VGND sky130_ef_sc_hd__decap_12
XFILLER_0_48_209 VPWR VGND VPWR VGND sky130_ef_sc_hd__decap_12
XFILLER_0_88_389 VPWR VGND VPWR VGND sky130_ef_sc_hd__decap_12
XFILLER_0_56_253 VPWR VGND VPWR VGND sky130_ef_sc_hd__decap_12
XFILLER_0_16_139 VGND VGND VPWR VPWR sky130_fd_sc_hd__fill_1
XFILLER_0_4_501 VPWR VGND VPWR VGND sky130_ef_sc_hd__decap_12
XTAP_TAPCELL_ROW_32_568 VGND VPWR sky130_fd_sc_hd__tapvpwrvgnd_1
XTAP_TAPCELL_ROW_60_877 VGND VPWR sky130_fd_sc_hd__tapvpwrvgnd_1
XFILLER_0_71_223 VGND VGND VPWR VPWR sky130_fd_sc_hd__fill_1
XFILLER_0_21_51 VGND VGND VPWR VPWR sky130_fd_sc_hd__decap_4
XFILLER_0_12_301 VGND VGND VPWR VPWR sky130_fd_sc_hd__decap_6
XFILLER_0_4_545 VPWR VGND VPWR VGND sky130_ef_sc_hd__decap_12
XFILLER_0_97_55 VGND VGND VPWR VPWR sky130_fd_sc_hd__fill_1
XFILLER_0_12_345 VPWR VGND VPWR VGND sky130_ef_sc_hd__decap_12
XFILLER_0_4_589 VPWR VGND VPWR VGND sky130_ef_sc_hd__decap_12
XFILLER_0_12_389 VPWR VGND VPWR VGND sky130_ef_sc_hd__decap_12
XFILLER_0_34_3 VPWR VGND VPWR VGND sky130_ef_sc_hd__decap_12
XFILLER_0_98_109 VPWR VGND VPWR VGND sky130_ef_sc_hd__decap_12
XTAP_TAPCELL_ROW_68_966 VGND VPWR sky130_fd_sc_hd__tapvpwrvgnd_1
XFILLER_0_75_573 VPWR VGND VPWR VGND sky130_ef_sc_hd__decap_12
XFILLER_0_7_361 VPWR VGND VPWR VGND sky130_ef_sc_hd__decap_12
XFILLER_0_62_245 VGND VGND VPWR VPWR sky130_fd_sc_hd__decap_6
XFILLER_0_90_587 VGND VGND VPWR VPWR sky130_fd_sc_hd__fill_1
XFILLER_0_15_161 VGND VGND VPWR VPWR sky130_fd_sc_hd__decap_6
XFILLER_0_22_109 VPWR VGND VPWR VGND sky130_ef_sc_hd__decap_12
XFILLER_0_62_289 VPWR VGND VPWR VGND sky130_ef_sc_hd__decap_12
XTAP_TAPCELL_ROW_91_1217 VGND VPWR sky130_fd_sc_hd__tapvpwrvgnd_1
XFILLER_0_30_153 VPWR VGND VPWR VGND sky130_ef_sc_hd__decap_12
XFILLER_0_30_197 VPWR VGND VPWR VGND sky130_ef_sc_hd__decap_12
XFILLER_0_26_29 VPWR VGND VPWR VGND sky130_ef_sc_hd__decap_12
XFILLER_0_98_621 VGND VGND VPWR VPWR sky130_fd_sc_hd__fill_1
XFILLER_0_85_337 VPWR VGND VPWR VGND sky130_ef_sc_hd__decap_12
XTAP_TAPCELL_ROW_100_1324 VGND VPWR sky130_fd_sc_hd__tapvpwrvgnd_1
XFILLER_0_38_253 VPWR VGND VPWR VGND sky130_ef_sc_hd__decap_12
XFILLER_0_53_223 VGND VGND VPWR VPWR sky130_fd_sc_hd__fill_1
XFILLER_0_41_429 VPWR VGND VPWR VGND sky130_ef_sc_hd__decap_12
XANTENNA_5 display_out.in\[0\] VGND VGND VPWR VPWR sky130_fd_sc_hd__diode_2
XFILLER_0_1_559 VGND VGND VPWR VPWR sky130_fd_sc_hd__fill_1
XFILLER_0_67_69 VPWR VGND VPWR VGND sky130_ef_sc_hd__decap_12
XFILLER_0_83_57 VPWR VGND VPWR VGND sky130_ef_sc_hd__decap_12
XTAP_TAPCELL_ROW_37_627 VGND VPWR sky130_fd_sc_hd__tapvpwrvgnd_1
XTAP_TAPCELL_ROW_65_936 VGND VPWR sky130_fd_sc_hd__tapvpwrvgnd_1
XFILLER_0_88_153 VPWR VGND VPWR VGND sky130_ef_sc_hd__decap_12
XFILLER_0_49_529 VPWR VGND VPWR VGND sky130_ef_sc_hd__decap_12
XFILLER_0_88_197 VPWR VGND VPWR VGND sky130_ef_sc_hd__decap_12
XFILLER_0_9_615 VGND VGND VPWR VPWR sky130_fd_sc_hd__fill_1
XFILLER_0_57_573 VPWR VGND VPWR VGND sky130_ef_sc_hd__decap_12
XFILLER_0_91_329 VGND VGND VPWR VPWR sky130_fd_sc_hd__decap_6
XFILLER_0_32_83 VGND VGND VPWR VPWR sky130_fd_sc_hd__fill_1
XFILLER_0_44_245 VGND VGND VPWR VPWR sky130_fd_sc_hd__decap_6
XFILLER_0_44_289 VPWR VGND VPWR VGND sky130_ef_sc_hd__decap_12
XFILLER_0_72_587 VGND VGND VPWR VPWR sky130_fd_sc_hd__fill_1
XTAP_TAPCELL_ROW_77_1072 VGND VPWR sky130_fd_sc_hd__tapvpwrvgnd_1
XFILLER_0_12_153 VPWR VGND VPWR VGND sky130_ef_sc_hd__decap_12
XTAP_TAPCELL_ROW_9_319 VGND VPWR sky130_fd_sc_hd__tapvpwrvgnd_1
XFILLER_0_12_197 VPWR VGND VPWR VGND sky130_ef_sc_hd__decap_12
XFILLER_0_99_429 VPWR VGND VPWR VGND sky130_ef_sc_hd__decap_12
XTAP_TAPCELL_ROW_88_1190 VGND VPWR sky130_fd_sc_hd__tapvpwrvgnd_1
XFILLER_0_67_337 VGND VGND VPWR VPWR sky130_fd_sc_hd__fill_1
XFILLER_0_82_307 VGND VGND VPWR VPWR sky130_fd_sc_hd__fill_1
XFILLER_0_94_189 VGND VGND VPWR VPWR sky130_fd_sc_hd__decap_6
XFILLER_0_35_223 VGND VGND VPWR VPWR sky130_fd_sc_hd__fill_1
XFILLER_0_23_429 VPWR VGND VPWR VGND sky130_ef_sc_hd__decap_12
XFILLER_0_31_440 VGND VGND VPWR VPWR sky130_fd_sc_hd__fill_2
Xoutput7 net7 VGND VGND VPWR VPWR out[5] sky130_fd_sc_hd__buf_1
XFILLER_0_31_473 VPWR VGND VPWR VGND sky130_ef_sc_hd__decap_12
XFILLER_0_101_361 VGND VGND VPWR VPWR sky130_fd_sc_hd__decap_3
XFILLER_0_37_39 VPWR VGND VPWR VGND sky130_ef_sc_hd__decap_12
XFILLER_0_53_27 VPWR VGND VPWR VGND sky130_ef_sc_hd__decap_12
XFILLER_0_86_613 VPWR VGND VPWR VGND sky130_ef_sc_hd__decap_12
XTAP_TAPCELL_ROW_62_906 VGND VPWR sky130_fd_sc_hd__tapvpwrvgnd_1
XFILLER_0_85_167 VGND VGND VPWR VPWR sky130_fd_sc_hd__fill_1
XFILLER_0_39_573 VPWR VGND VPWR VGND sky130_ef_sc_hd__decap_12
XFILLER_0_73_329 VGND VGND VPWR VPWR sky130_fd_sc_hd__decap_6
XTAP_TAPCELL_ROW_14_376 VGND VPWR sky130_fd_sc_hd__tapvpwrvgnd_1
XFILLER_0_26_245 VGND VGND VPWR VPWR sky130_fd_sc_hd__decap_6
XTAP_TAPCELL_ROW_42_685 VGND VPWR sky130_fd_sc_hd__tapvpwrvgnd_1
XTAP_TAPCELL_ROW_70_994 VGND VPWR sky130_fd_sc_hd__tapvpwrvgnd_1
XFILLER_0_81_373 VPWR VGND VPWR VGND sky130_ef_sc_hd__decap_12
XFILLER_0_26_289 VPWR VGND VPWR VGND sky130_ef_sc_hd__decap_12
XFILLER_0_54_587 VGND VGND VPWR VPWR sky130_fd_sc_hd__fill_1
XFILLER_0_41_237 VPWR VGND VPWR VGND sky130_ef_sc_hd__decap_12
XFILLER_0_10_613 VPWR VGND VPWR VGND sky130_ef_sc_hd__decap_12
XFILLER_0_89_473 VPWR VGND VPWR VGND sky130_ef_sc_hd__decap_12
XFILLER_0_49_337 VPWR VGND VPWR VGND sky130_ef_sc_hd__decap_12
XFILLER_0_64_307 VGND VGND VPWR VPWR sky130_fd_sc_hd__fill_1
XFILLER_0_43_93 VPWR VGND VPWR VGND sky130_ef_sc_hd__decap_12
XFILLER_0_76_189 VGND VGND VPWR VPWR sky130_fd_sc_hd__decap_6
XFILLER_0_91_137 VPWR VGND VPWR VGND sky130_ef_sc_hd__decap_12
XFILLER_0_17_223 VGND VGND VPWR VPWR sky130_fd_sc_hd__fill_1
XFILLER_0_60_513 VPWR VGND VPWR VGND sky130_ef_sc_hd__decap_12
XFILLER_0_60_557 VPWR VGND VPWR VGND sky130_ef_sc_hd__decap_12
XFILLER_0_13_473 VPWR VGND VPWR VGND sky130_ef_sc_hd__decap_12
XFILLER_0_7_93 VPWR VGND VPWR VGND sky130_ef_sc_hd__decap_12
XFILLER_0_99_237 VPWR VGND VPWR VGND sky130_ef_sc_hd__decap_12
XFILLER_0_68_613 VPWR VGND VPWR VGND sky130_ef_sc_hd__decap_12
XFILLER_0_67_167 VGND VGND VPWR VPWR sky130_fd_sc_hd__fill_1
XFILLER_0_55_329 VGND VGND VPWR VPWR sky130_fd_sc_hd__decap_6
XTAP_TAPCELL_ROW_11_346 VGND VPWR sky130_fd_sc_hd__tapvpwrvgnd_1
XFILLER_0_36_587 VGND VGND VPWR VPWR sky130_fd_sc_hd__fill_1
XFILLER_0_63_373 VPWR VGND VPWR VGND sky130_ef_sc_hd__decap_12
XFILLER_0_2_109 VPWR VGND VPWR VGND sky130_ef_sc_hd__decap_12
XFILLER_0_23_237 VPWR VGND VPWR VGND sky130_ef_sc_hd__decap_12
XTAP_TAPCELL_ROW_97_1289 VGND VPWR sky130_fd_sc_hd__tapvpwrvgnd_1
XFILLER_0_31_281 VPWR VGND VPWR VGND sky130_ef_sc_hd__decap_12
XFILLER_0_48_27 VGND VGND VPWR VPWR sky130_fd_sc_hd__fill_1
XFILLER_0_64_15 VPWR VGND VPWR VGND sky130_ef_sc_hd__decap_12
XTAP_TAPCELL_ROW_19_424 VGND VPWR sky130_fd_sc_hd__tapvpwrvgnd_1
XTAP_TAPCELL_ROW_47_733 VGND VPWR sky130_fd_sc_hd__tapvpwrvgnd_1
XFILLER_0_86_421 VPWR VGND VPWR VGND sky130_ef_sc_hd__decap_12
XFILLER_0_46_307 VGND VGND VPWR VPWR sky130_fd_sc_hd__fill_1
XFILLER_0_58_189 VGND VGND VPWR VPWR sky130_fd_sc_hd__decap_6
XFILLER_0_73_137 VPWR VGND VPWR VGND sky130_ef_sc_hd__decap_12
XFILLER_0_42_513 VPWR VGND VPWR VGND sky130_ef_sc_hd__decap_12
XFILLER_0_81_181 VPWR VGND VPWR VGND sky130_ef_sc_hd__decap_12
XFILLER_0_42_557 VPWR VGND VPWR VGND sky130_ef_sc_hd__decap_12
XFILLER_0_10_421 VPWR VGND VPWR VGND sky130_ef_sc_hd__decap_12
XTAP_TAPCELL_ROW_74_1031 VGND VPWR sky130_fd_sc_hd__tapvpwrvgnd_1
XFILLER_0_89_281 VPWR VGND VPWR VGND sky130_ef_sc_hd__decap_12
XTAP_TAPCELL_ROW_85_1160 VGND VPWR sky130_fd_sc_hd__tapvpwrvgnd_1
XFILLER_0_92_413 VGND VGND VPWR VPWR sky130_fd_sc_hd__decap_6
XFILLER_0_37_329 VGND VGND VPWR VPWR sky130_fd_sc_hd__decap_6
XFILLER_0_49_167 VGND VGND VPWR VPWR sky130_fd_sc_hd__fill_1
XFILLER_0_92_457 VPWR VGND VPWR VGND sky130_ef_sc_hd__decap_12
XFILLER_0_18_587 VGND VGND VPWR VPWR sky130_fd_sc_hd__fill_1
XFILLER_0_45_373 VPWR VGND VPWR VGND sky130_ef_sc_hd__decap_12
XFILLER_0_60_321 VPWR VGND VPWR VGND sky130_ef_sc_hd__decap_12
XFILLER_0_60_365 VPWR VGND VPWR VGND sky130_ef_sc_hd__decap_12
XFILLER_0_13_281 VPWR VGND VPWR VGND sky130_ef_sc_hd__decap_12
XFILLER_0_34_29 VPWR VGND VPWR VGND sky130_ef_sc_hd__decap_12
XTAP_TAPCELL_ROW_44_703 VGND VPWR sky130_fd_sc_hd__tapvpwrvgnd_1
XFILLER_0_68_421 VPWR VGND VPWR VGND sky130_ef_sc_hd__decap_12
XFILLER_0_95_273 VGND VGND VPWR VPWR sky130_fd_sc_hd__decap_6
XFILLER_0_28_307 VGND VGND VPWR VPWR sky130_fd_sc_hd__fill_1
XTAP_TAPCELL_ROW_99_1307 VGND VPWR sky130_fd_sc_hd__tapvpwrvgnd_1
XFILLER_0_55_137 VPWR VGND VPWR VGND sky130_ef_sc_hd__decap_12
XTAP_TAPCELL_ROW_24_482 VGND VPWR sky130_fd_sc_hd__tapvpwrvgnd_1
XFILLER_0_24_502 VPWR VGND VPWR VGND sky130_ef_sc_hd__decap_12
XTAP_TAPCELL_ROW_52_791 VGND VPWR sky130_fd_sc_hd__tapvpwrvgnd_1
XFILLER_0_63_181 VPWR VGND VPWR VGND sky130_ef_sc_hd__decap_12
XFILLER_0_3_429 VPWR VGND VPWR VGND sky130_ef_sc_hd__decap_12
XFILLER_0_24_557 VPWR VGND VPWR VGND sky130_ef_sc_hd__decap_12
XFILLER_0_51_343 VPWR VGND VPWR VGND sky130_ef_sc_hd__decap_12
XFILLER_0_59_15 VPWR VGND VPWR VGND sky130_ef_sc_hd__decap_12
XFILLER_0_75_69 VPWR VGND VPWR VGND sky130_ef_sc_hd__decap_12
XFILLER_0_91_57 VPWR VGND VPWR VGND sky130_ef_sc_hd__decap_12
XFILLER_0_86_251 VGND VGND VPWR VPWR sky130_fd_sc_hd__fill_1
XFILLER_0_19_329 VGND VGND VPWR VPWR sky130_fd_sc_hd__decap_6
XFILLER_0_74_413 VGND VGND VPWR VPWR sky130_fd_sc_hd__decap_6
XFILLER_0_74_457 VPWR VGND VPWR VGND sky130_ef_sc_hd__decap_12
XFILLER_0_6_245 VGND VGND VPWR VPWR sky130_fd_sc_hd__decap_6
XFILLER_0_27_373 VPWR VGND VPWR VGND sky130_ef_sc_hd__decap_12
XFILLER_0_42_321 VPWR VGND VPWR VGND sky130_ef_sc_hd__decap_12
XFILLER_0_6_289 VPWR VGND VPWR VGND sky130_ef_sc_hd__decap_12
XFILLER_0_42_365 VPWR VGND VPWR VGND sky130_ef_sc_hd__decap_12
XPHY_EDGE_ROW_12_Right_12 VGND VGND VPWR VPWR sky130_fd_sc_hd__decap_3
XFILLER_0_64_3 VPWR VGND VPWR VGND sky130_ef_sc_hd__decap_12
XFILLER_0_10_251 VGND VGND VPWR VPWR sky130_fd_sc_hd__fill_1
XFILLER_0_49_81 VPWR VGND VPWR VGND sky130_ef_sc_hd__decap_12
XFILLER_0_4_83 VGND VGND VPWR VPWR sky130_fd_sc_hd__fill_1
XFILLER_0_97_505 VPWR VGND VPWR VGND sky130_ef_sc_hd__decap_12
XPHY_EDGE_ROW_21_Right_21 VGND VGND VPWR VPWR sky130_fd_sc_hd__decap_3
XFILLER_0_77_273 VGND VGND VPWR VPWR sky130_fd_sc_hd__decap_6
XFILLER_0_92_221 VPWR VGND VPWR VGND sky130_ef_sc_hd__decap_12
XFILLER_0_37_137 VPWR VGND VPWR VGND sky130_ef_sc_hd__decap_12
XFILLER_0_92_265 VPWR VGND VPWR VGND sky130_ef_sc_hd__decap_12
XTAP_TAPCELL_ROW_21_452 VGND VPWR sky130_fd_sc_hd__tapvpwrvgnd_1
XFILLER_0_45_181 VPWR VGND VPWR VGND sky130_ef_sc_hd__decap_12
XFILLER_0_21_505 VPWR VGND VPWR VGND sky130_ef_sc_hd__decap_12
XPHY_EDGE_ROW_30_Right_30 VGND VGND VPWR VPWR sky130_fd_sc_hd__decap_3
XTAP_TAPCELL_ROW_94_1259 VGND VPWR sky130_fd_sc_hd__tapvpwrvgnd_1
XFILLER_0_60_195 VGND VGND VPWR VPWR sky130_fd_sc_hd__fill_1
XFILLER_0_45_39 VPWR VGND VPWR VGND sky130_ef_sc_hd__decap_12
XTAP_TAPCELL_ROW_29_541 VGND VPWR sky130_fd_sc_hd__tapvpwrvgnd_1
XTAP_TAPCELL_ROW_57_850 VGND VPWR sky130_fd_sc_hd__tapvpwrvgnd_1
XFILLER_0_56_413 VGND VGND VPWR VPWR sky130_fd_sc_hd__decap_6
XFILLER_0_61_27 VPWR VGND VPWR VGND sky130_ef_sc_hd__decap_12
XFILLER_0_68_251 VGND VGND VPWR VPWR sky130_fd_sc_hd__fill_1
XFILLER_0_56_457 VPWR VGND VPWR VGND sky130_ef_sc_hd__decap_12
XFILLER_0_71_405 VPWR VGND VPWR VGND sky130_ef_sc_hd__decap_12
XFILLER_0_9_39 VPWR VGND VPWR VGND sky130_ef_sc_hd__decap_12
XFILLER_0_24_321 VPWR VGND VPWR VGND sky130_ef_sc_hd__decap_12
XFILLER_0_71_449 VPWR VGND VPWR VGND sky130_ef_sc_hd__decap_12
XFILLER_0_10_53 VPWR VGND VPWR VGND sky130_ef_sc_hd__decap_12
XFILLER_0_3_237 VPWR VGND VPWR VGND sky130_ef_sc_hd__decap_12
XFILLER_0_24_365 VPWR VGND VPWR VGND sky130_ef_sc_hd__decap_12
XFILLER_0_10_97 VPWR VGND VPWR VGND sky130_ef_sc_hd__decap_12
XTAP_TAPCELL_ROW_71_1001 VGND VPWR sky130_fd_sc_hd__tapvpwrvgnd_1
XFILLER_0_19_51 VGND VGND VPWR VPWR sky130_fd_sc_hd__decap_4
XFILLER_0_79_505 VPWR VGND VPWR VGND sky130_ef_sc_hd__decap_12
X_48_ clknet_1_0__leaf_clk _02_ VGND VGND VPWR VPWR display_out.in\[2\] sky130_fd_sc_hd__dfxtp_4
XFILLER_0_59_273 VGND VGND VPWR VPWR sky130_fd_sc_hd__decap_6
XFILLER_0_19_137 VPWR VGND VPWR VGND sky130_ef_sc_hd__decap_12
XFILLER_0_74_221 VPWR VGND VPWR VGND sky130_ef_sc_hd__decap_12
XFILLER_0_74_265 VPWR VGND VPWR VGND sky130_ef_sc_hd__decap_12
XFILLER_0_51_93 VPWR VGND VPWR VGND sky130_ef_sc_hd__decap_12
XFILLER_0_27_181 VPWR VGND VPWR VGND sky130_ef_sc_hd__decap_12
XFILLER_0_42_195 VGND VGND VPWR VPWR sky130_fd_sc_hd__fill_1
XFILLER_0_30_357 VGND VGND VPWR VPWR sky130_fd_sc_hd__decap_6
XFILLER_0_100_245 VGND VGND VPWR VPWR sky130_fd_sc_hd__decap_6
XFILLER_0_97_335 VGND VGND VPWR VPWR sky130_fd_sc_hd__fill_1
XTAP_TAPCELL_ROW_26_511 VGND VPWR sky130_fd_sc_hd__tapvpwrvgnd_1
XFILLER_0_38_413 VGND VGND VPWR VPWR sky130_fd_sc_hd__decap_6
XFILLER_0_93_541 VPWR VGND VPWR VGND sky130_ef_sc_hd__decap_12
XFILLER_0_38_435 VPWR VGND VPWR VGND sky130_ef_sc_hd__decap_12
XFILLER_0_53_405 VPWR VGND VPWR VGND sky130_ef_sc_hd__decap_12
XFILLER_0_93_585 VPWR VGND VPWR VGND sky130_ef_sc_hd__decap_12
XFILLER_0_53_449 VPWR VGND VPWR VGND sky130_ef_sc_hd__decap_12
XFILLER_0_65_298 VGND VGND VPWR VPWR sky130_fd_sc_hd__fill_2
XFILLER_0_21_335 VGND VGND VPWR VPWR sky130_fd_sc_hd__fill_1
XFILLER_0_56_27 VGND VGND VPWR VPWR sky130_fd_sc_hd__fill_1
XTAP_TAPCELL_ROW_6_291 VGND VPWR sky130_fd_sc_hd__tapvpwrvgnd_1
XFILLER_0_88_302 VGND VGND VPWR VPWR sky130_fd_sc_hd__decap_6
XFILLER_0_72_15 VPWR VGND VPWR VGND sky130_ef_sc_hd__decap_12
XFILLER_0_88_357 VGND VGND VPWR VPWR sky130_fd_sc_hd__decap_6
XFILLER_0_8_307 VGND VGND VPWR VPWR sky130_fd_sc_hd__fill_1
XFILLER_0_56_221 VPWR VGND VPWR VGND sky130_ef_sc_hd__decap_12
XFILLER_0_56_265 VPWR VGND VPWR VGND sky130_ef_sc_hd__decap_12
XTAP_TAPCELL_ROW_32_569 VGND VPWR sky130_fd_sc_hd__tapvpwrvgnd_1
XTAP_TAPCELL_ROW_60_878 VGND VPWR sky130_fd_sc_hd__tapvpwrvgnd_1
XFILLER_0_4_513 VPWR VGND VPWR VGND sky130_ef_sc_hd__decap_12
XFILLER_0_4_557 VPWR VGND VPWR VGND sky130_ef_sc_hd__decap_12
XFILLER_0_71_279 VGND VGND VPWR VPWR sky130_fd_sc_hd__fill_1
XFILLER_0_24_195 VGND VGND VPWR VPWR sky130_fd_sc_hd__fill_1
XFILLER_0_12_357 VGND VGND VPWR VPWR sky130_fd_sc_hd__decap_6
XFILLER_0_27_3 VPWR VGND VPWR VGND sky130_ef_sc_hd__decap_12
XTAP_TAPCELL_ROW_68_967 VGND VPWR sky130_fd_sc_hd__tapvpwrvgnd_1
XFILLER_0_79_335 VGND VGND VPWR VPWR sky130_fd_sc_hd__fill_1
XPHY_EDGE_ROW_9_Left_111 VGND VGND VPWR VPWR sky130_fd_sc_hd__decap_3
XFILLER_0_1_51 VGND VGND VPWR VPWR sky130_fd_sc_hd__decap_4
XFILLER_0_75_541 VPWR VGND VPWR VGND sky130_ef_sc_hd__decap_12
XFILLER_0_35_405 VPWR VGND VPWR VGND sky130_ef_sc_hd__decap_12
XFILLER_0_90_533 VPWR VGND VPWR VGND sky130_ef_sc_hd__decap_12
XFILLER_0_75_585 VPWR VGND VPWR VGND sky130_ef_sc_hd__decap_12
XFILLER_0_7_373 VPWR VGND VPWR VGND sky130_ef_sc_hd__decap_12
XFILLER_0_35_449 VPWR VGND VPWR VGND sky130_ef_sc_hd__decap_12
XFILLER_0_50_419 VGND VGND VPWR VPWR sky130_fd_sc_hd__fill_1
XFILLER_0_30_121 VPWR VGND VPWR VGND sky130_ef_sc_hd__decap_12
XTAP_TAPCELL_ROW_91_1218 VGND VPWR sky130_fd_sc_hd__tapvpwrvgnd_1
XFILLER_0_30_165 VPWR VGND VPWR VGND sky130_ef_sc_hd__decap_12
XTAP_TAPCELL_ROW_3_250 VGND VPWR sky130_fd_sc_hd__tapvpwrvgnd_1
XFILLER_0_85_305 VPWR VGND VPWR VGND sky130_ef_sc_hd__decap_12
XFILLER_0_85_349 VPWR VGND VPWR VGND sky130_ef_sc_hd__decap_12
XFILLER_0_38_221 VPWR VGND VPWR VGND sky130_ef_sc_hd__decap_12
XFILLER_0_42_29 VPWR VGND VPWR VGND sky130_ef_sc_hd__decap_12
XTAP_TAPCELL_ROW_100_1325 VGND VPWR sky130_fd_sc_hd__tapvpwrvgnd_1
XFILLER_0_38_265 VPWR VGND VPWR VGND sky130_ef_sc_hd__decap_12
XFILLER_0_93_393 VPWR VGND VPWR VGND sky130_ef_sc_hd__decap_12
XFILLER_0_53_279 VGND VGND VPWR VPWR sky130_fd_sc_hd__fill_1
XFILLER_0_1_505 VPWR VGND VPWR VGND sky130_ef_sc_hd__decap_12
XFILLER_0_34_482 VPWR VGND VPWR VGND sky130_ef_sc_hd__decap_12
XANTENNA_6 net5 VGND VGND VPWR VPWR sky130_fd_sc_hd__diode_2
XFILLER_0_6_29 VPWR VGND VPWR VGND sky130_ef_sc_hd__decap_12
XFILLER_0_67_15 VPWR VGND VPWR VGND sky130_ef_sc_hd__decap_12