*SPEF "ieee 1481-1999"
*DESIGN "TwosComplementer"
*DATE "14:14:40 Wednesday April 23, 2025"
*VENDOR "The OpenROAD Project"
*PROGRAM "OpenROAD"
*VERSION "b16bda7e82721d10566ff7e2b68f1ff0be9f9e38"
*DESIGN_FLOW "NAME_SCOPE LOCAL" "PIN_CAP NONE"
*DIVIDER /
*DELIMITER :
*BUS_DELIMITER []
*T_UNIT 1 NS
*C_UNIT 1 PF
*R_UNIT 1 OHM
*L_UNIT 1 HENRY

*NAME_MAP
*3 x[0]
*4 x[1]
*5 x[2]
*6 x[3]
*7 x[4]
*8 x[5]
*9 x[6]
*10 x[7]
*11 z[0]
*12 z[1]
*13 z[2]
*14 z[3]
*15 z[4]
*16 z[5]
*17 z[6]
*18 z[7]
*19 _00_
*20 _01_
*21 _02_
*22 _03_
*23 _04_
*24 _05_
*25 _06_
*26 _07_
*27 _08_
*28 net1
*29 net10
*30 net11
*31 net12
*32 net13
*33 net14
*34 net15
*35 net16
*36 net2
*37 net3
*38 net4
*39 net5
*40 net6
*41 net7
*42 net8
*43 net9
*44 FILLER_0_0_21
*45 FILLER_0_0_27
*46 FILLER_0_0_29
*47 FILLER_0_0_37
*48 FILLER_0_0_9
*49 FILLER_0_10_18
*50 FILLER_0_10_26
*51 FILLER_0_10_29
*52 FILLER_0_10_37
*53 FILLER_0_10_6
*54 FILLER_0_11_18
*55 FILLER_0_11_30
*56 FILLER_0_11_34
*57 FILLER_0_11_41
*58 FILLER_0_11_47
*59 FILLER_0_11_6
*60 FILLER_0_12_13
*61 FILLER_0_12_25
*62 FILLER_0_12_29
*63 FILLER_0_1_16
*64 FILLER_0_1_22
*65 FILLER_0_1_3
*66 FILLER_0_1_30
*67 FILLER_0_1_42
*68 FILLER_0_1_9
*69 FILLER_0_2_21
*70 FILLER_0_2_27
*71 FILLER_0_2_29
*72 FILLER_0_2_41
*73 FILLER_0_2_47
*74 FILLER_0_2_9
*75 FILLER_0_3_10
*76 FILLER_0_3_22
*77 FILLER_0_3_3
*78 FILLER_0_3_34
*79 FILLER_0_3_38
*80 FILLER_0_4_15
*81 FILLER_0_4_24
*82 FILLER_0_4_29
*83 FILLER_0_4_3
*84 FILLER_0_4_41
*85 FILLER_0_4_47
*86 FILLER_0_5_18
*87 FILLER_0_5_30
*88 FILLER_0_5_35
*89 FILLER_0_5_43
*90 FILLER_0_5_6
*91 FILLER_0_6_15
*92 FILLER_0_6_23
*93 FILLER_0_6_27
*94 FILLER_0_6_29
*95 FILLER_0_6_3
*96 FILLER_0_6_37
*97 FILLER_0_6_45
*98 FILLER_0_7_15
*99 FILLER_0_7_27
*100 FILLER_0_7_3
*101 FILLER_0_7_35
*102 FILLER_0_8_18
*103 FILLER_0_8_26
*104 FILLER_0_8_29
*105 FILLER_0_8_35
*106 FILLER_0_8_6
*107 FILLER_0_9_15
*108 FILLER_0_9_27
*109 FILLER_0_9_3
*110 FILLER_0_9_39
*111 FILLER_0_9_47
*112 PHY_EDGE_ROW_0_Left_13
*113 PHY_EDGE_ROW_0_Right_0
*114 PHY_EDGE_ROW_10_Left_23
*115 PHY_EDGE_ROW_10_Right_10
*116 PHY_EDGE_ROW_11_Left_24
*117 PHY_EDGE_ROW_11_Right_11
*118 PHY_EDGE_ROW_12_Left_25
*119 PHY_EDGE_ROW_12_Right_12
*120 PHY_EDGE_ROW_1_Left_14
*121 PHY_EDGE_ROW_1_Right_1
*122 PHY_EDGE_ROW_2_Left_15
*123 PHY_EDGE_ROW_2_Right_2
*124 PHY_EDGE_ROW_3_Left_16
*125 PHY_EDGE_ROW_3_Right_3
*126 PHY_EDGE_ROW_4_Left_17
*127 PHY_EDGE_ROW_4_Right_4
*128 PHY_EDGE_ROW_5_Left_18
*129 PHY_EDGE_ROW_5_Right_5
*130 PHY_EDGE_ROW_6_Left_19
*131 PHY_EDGE_ROW_6_Right_6
*132 PHY_EDGE_ROW_7_Left_20
*133 PHY_EDGE_ROW_7_Right_7
*134 PHY_EDGE_ROW_8_Left_21
*135 PHY_EDGE_ROW_8_Right_8
*136 PHY_EDGE_ROW_9_Left_22
*137 PHY_EDGE_ROW_9_Right_9
*138 TAP_TAPCELL_ROW_0_26
*139 TAP_TAPCELL_ROW_10_31
*140 TAP_TAPCELL_ROW_12_32
*141 TAP_TAPCELL_ROW_2_27
*142 TAP_TAPCELL_ROW_4_28
*143 TAP_TAPCELL_ROW_6_29
*144 TAP_TAPCELL_ROW_8_30
*145 _09_
*146 _10_
*147 _11_
*148 _12_
*149 _13_
*150 _14_
*151 _15_
*152 _16_
*153 _17_
*154 _18_
*155 _19_
*156 _20_
*157 _21_
*158 _22_
*159 _23_
*160 _24_
*161 _25_
*162 input1
*163 input2
*164 input3
*165 input4
*166 input5
*167 input6
*168 input7
*169 input8
*170 output10
*171 output11
*172 output12
*173 output13
*174 output14
*175 output15
*176 output16
*177 output9

*PORTS
x[0] I
x[1] I
x[2] I
x[3] I
x[4] I
x[5] I
x[6] I
x[7] I
z[0] O
z[1] O
z[2] O
z[3] O
z[4] O
z[5] O
z[6] O
z[7] O

*D_NET *3 0.00105377
*CONN
*P x[0] I
*I *162:A I *D sky130_fd_sc_hd__dlymetal6s2s_1
*CAP
1 x[0] 0.000526885
2 *162:A 0.000526885
3 *162:A *163:A 0
*RES
1 x[0] *162:A 24.1943 
*END

*D_NET *4 0.000762532
*CONN
*P x[1] I
*I *163:A I *D sky130_fd_sc_hd__buf_1
*CAP
1 x[1] 0.000381266
2 *163:A 0.000381266
3 *163:A *164:A 0
4 *162:A *163:A 0
*RES
1 x[1] *163:A 22.3017 
*END

*D_NET *5 0.000572832
*CONN
*P x[2] I
*I *164:A I *D sky130_fd_sc_hd__buf_1
*CAP
1 x[2] 0.000286416
2 *164:A 0.000286416
3 *164:A *165:A 0
4 *163:A *164:A 0
*RES
1 x[2] *164:A 20.4803 
*END

*D_NET *6 0.000694675
*CONN
*P x[3] I
*I *165:A I *D sky130_fd_sc_hd__clkbuf_1
*CAP
1 x[3] 0.000347337
2 *165:A 0.000347337
3 *165:A *166:A 0
4 *165:A *39:32 0
5 *164:A *165:A 0
*RES
1 x[3] *165:A 21.6946 
*END

*D_NET *7 0.00061104
*CONN
*P x[4] I
*I *166:A I *D sky130_fd_sc_hd__buf_1
*CAP
1 x[4] 0.00030552
2 *166:A 0.00030552
3 *166:A *167:A 0
4 *166:A *39:10 0
5 *165:A *166:A 0
*RES
1 x[4] *166:A 20.7838 
*END

*D_NET *8 0.000563768
*CONN
*P x[5] I
*I *167:A I *D sky130_fd_sc_hd__buf_1
*CAP
1 x[5] 0.000281884
2 *167:A 0.000281884
3 *167:A *168:A 0
4 *166:A *167:A 0
*RES
1 x[5] *167:A 20.4803 
*END

*D_NET *9 0.000563768
*CONN
*P x[6] I
*I *168:A I *D sky130_fd_sc_hd__buf_1
*CAP
1 x[6] 0.000281884
2 *168:A 0.000281884
3 *168:A *169:A 0
4 *167:A *168:A 0
*RES
1 x[6] *168:A 20.4803 
*END

*D_NET *10 0.00123174
*CONN
*P x[7] I
*I *169:A I *D sky130_fd_sc_hd__clkbuf_1
*CAP
1 x[7] 0.000615872
2 *169:A 0.000615872
3 *168:A *169:A 0
*RES
1 x[7] *169:A 25.0176 
*END

*D_NET *11 0.00116601
*CONN
*P z[0] O
*I *177:X O *D sky130_fd_sc_hd__buf_2
*CAP
1 z[0] 0.000583005
2 *177:X 0.000583005
3 z[0] z[1] 0
*RES
1 *177:X z[0] 23.8754 
*END

*D_NET *12 0.000438356
*CONN
*P z[1] O
*I *170:X O *D sky130_fd_sc_hd__buf_2
*CAP
1 z[1] 0.000219178
2 *170:X 0.000219178
3 z[1] z[2] 0
4 z[0] z[1] 0
*RES
1 *170:X z[1] 18.1229 
*END

*D_NET *13 0.000470971
*CONN
*P z[2] O
*I *171:X O *D sky130_fd_sc_hd__buf_2
*CAP
1 z[2] 0.000224383
2 *171:X 0.000224383
3 z[2] z[3] 0
4 z[2] *151:B 2.22043e-05
5 z[1] z[2] 0
*RES
1 *171:X z[2] 18.1229 
*END

*D_NET *14 0.000575454
*CONN
*P z[3] O
*I *172:X O *D sky130_fd_sc_hd__buf_2
*CAP
1 z[3] 0.000241162
2 *172:X 0.000241162
3 z[3] z[4] 0
4 z[3] *158:B 4.75911e-05
5 z[3] *41:10 4.5539e-05
6 z[2] z[3] 0
*RES
1 *172:X z[3] 18.4264 
*END

*D_NET *15 0.000469222
*CONN
*P z[4] O
*I *173:X O *D sky130_fd_sc_hd__buf_2
*CAP
1 z[4] 0.000218204
2 *173:X 0.000218204
3 z[4] z[5] 0
4 z[4] *173:A 1.21955e-05
5 z[4] *41:10 2.06178e-05
6 z[3] z[4] 0
*RES
1 *173:X z[4] 18.1229 
*END

*D_NET *16 0.000669836
*CONN
*P z[5] O
*I *174:X O *D sky130_fd_sc_hd__buf_2
*CAP
1 z[5] 0.000245861
2 *174:X 0.000245861
3 z[5] z[6] 0
4 z[5] *174:A 6.27457e-05
5 z[5] *41:10 0.000115369
6 z[4] z[5] 0
*RES
1 *174:X z[5] 19.3371 
*END

*D_NET *17 0.000931239
*CONN
*P z[6] O
*I *175:X O *D sky130_fd_sc_hd__buf_2
*CAP
1 z[6] 0.000465619
2 *175:X 0.000465619
3 z[6] z[7] 0
4 z[5] z[6] 0
*RES
1 *175:X z[6] 18.6273 
*END

*D_NET *18 0.00103775
*CONN
*P z[7] O
*I *176:X O *D sky130_fd_sc_hd__clkbuf_4
*CAP
1 z[7] 0.000518877
2 *176:X 0.000518877
3 z[6] z[7] 0
*RES
1 *176:X z[7] 24.4258 
*END

*D_NET *19 0.0076011
*CONN
*I *150:A3 I *D sky130_fd_sc_hd__o31a_1
*I *151:D I *D sky130_fd_sc_hd__or4_1
*I *147:B I *D sky130_fd_sc_hd__and2_1
*I *146:B I *D sky130_fd_sc_hd__nor2_1
*I *160:B1_N I *D sky130_fd_sc_hd__a21boi_1
*I *145:X O *D sky130_fd_sc_hd__or4_2
*CAP
1 *150:A3 3.00113e-05
2 *151:D 0.000211296
3 *147:B 3.82418e-05
4 *146:B 3.54844e-05
5 *160:B1_N 0.000186221
6 *145:X 5.54804e-05
7 *19:51 0.000517824
8 *19:18 0.000276075
9 *19:14 0.000836528
10 *19:8 0.00107591
11 *146:B *20:8 6.05161e-06
12 *146:B *40:8 1.21258e-05
13 *150:A3 *159:A 4.18895e-05
14 *151:D *151:A 0.000373331
15 *151:D *151:B 2.51343e-06
16 *151:D *177:A 0.000320745
17 *160:B1_N *146:A 1.02504e-05
18 *160:B1_N *154:A 0.000176234
19 *19:14 *148:B 0.00109423
20 *19:14 *154:B 0.000290993
21 *19:14 *160:A2 0.000135549
22 *19:14 *31:18 0.000554415
23 *19:18 *146:A 0.000166976
24 *19:18 *154:A 0.000173804
25 *19:51 *154:B 0.000485307
26 *19:51 *159:A 9.60939e-05
27 *19:51 *31:18 0.00023995
28 *19:51 *37:10 7.7674e-05
29 *19:51 *37:21 1.41029e-05
30 *19:51 *39:32 6.57914e-05
*RES
1 *145:X *19:8 14.3357 
2 *19:8 *19:14 22.8214 
3 *19:14 *19:18 6.75 
4 *19:18 *160:B1_N 17.4071 
5 *19:18 *146:B 14.3357 
6 *19:14 *147:B 10.0321 
7 *19:8 *19:51 12.875 
8 *19:51 *151:D 24.1393 
9 *19:51 *150:A3 9.83571 
*END

*D_NET *20 0.00289927
*CONN
*I *148:A I *D sky130_fd_sc_hd__nor2_1
*I *149:B I *D sky130_fd_sc_hd__xnor2_1
*I *146:Y O *D sky130_fd_sc_hd__nor2_1
*CAP
1 *148:A 0.000268618
2 *149:B 0.000145134
3 *146:Y 0.000268434
4 *20:8 0.000682187
5 *148:A *148:B 0.000399841
6 *148:A *160:A1 0.000161411
7 *148:A *31:18 0
8 *149:B *160:A1 0.000176226
9 *149:B *160:A2 0
10 *149:B *31:18 0
11 *20:8 *40:8 0.000791371
12 *146:B *20:8 6.05161e-06
*RES
1 *146:Y *20:8 21.3179 
2 *20:8 *149:B 16.9607 
3 *20:8 *148:A 19.8714 
*END

*D_NET *21 0.00231098
*CONN
*I *148:B I *D sky130_fd_sc_hd__nor2_1
*I *147:X O *D sky130_fd_sc_hd__and2_1
*CAP
1 *148:B 0.000398806
2 *147:X 0.000398806
3 *148:B *173:A 1.92905e-05
4 *148:A *148:B 0.000399841
5 *19:14 *148:B 0.00109423
*RES
1 *147:X *148:B 30.6536 
*END

*D_NET *22 0.00148225
*CONN
*I *152:A_N I *D sky130_fd_sc_hd__and2b_1
*I *150:X O *D sky130_fd_sc_hd__o31a_1
*CAP
1 *152:A_N 0.000187956
2 *150:X 0.000187956
3 *152:A_N *152:B 0.000227056
4 *152:A_N *154:B 0.000320024
5 *152:A_N *159:A 0.000559259
*RES
1 *150:X *152:A_N 35.2429 
*END

*D_NET *23 0.00464941
*CONN
*I *152:B I *D sky130_fd_sc_hd__and2b_1
*I *154:B I *D sky130_fd_sc_hd__xor2_1
*I *151:X O *D sky130_fd_sc_hd__or4_1
*CAP
1 *152:B 0.000244492
2 *154:B 0.000765231
3 *151:X 0.000138593
4 *23:8 0.00114832
5 *154:B *151:A 7.80714e-06
6 *154:B *160:A2 0.000485285
7 *154:B *176:A 0.000530254
8 *154:B *177:A 0
9 *154:B *37:10 0
10 *154:B *40:23 0
11 *23:8 *151:A 6.05161e-06
12 *152:A_N *152:B 0.000227056
13 *152:A_N *154:B 0.000320024
14 *19:14 *154:B 0.000290993
15 *19:51 *154:B 0.000485307
*RES
1 *151:X *23:8 15.1571 
2 *23:8 *154:B 33.9964 
3 *23:8 *152:B 18.1393 
*END

*D_NET *24 0.00306167
*CONN
*I *153:A I *D sky130_fd_sc_hd__clkbuf_1
*I *152:X O *D sky130_fd_sc_hd__and2b_1
*CAP
1 *153:A 0.00075427
2 *152:X 0.00075427
3 *153:A *151:B 0.000273199
4 *153:A *151:C 0.00021189
5 *153:A *158:B 0.000235324
6 *153:A *171:A 0.000175512
7 *153:A *173:A 0.000347347
8 *153:A *174:A 1.02504e-05
9 *153:A *176:A 0.000200406
10 *153:A *177:A 9.9201e-05
11 *153:A *40:23 0
12 *153:A *41:10 0
*RES
1 *152:X *153:A 47.9036 
*END

*D_NET *25 0.00520465
*CONN
*I *158:A I *D sky130_fd_sc_hd__and2_1
*I *160:A2 I *D sky130_fd_sc_hd__a21boi_1
*I *156:X O *D sky130_fd_sc_hd__or3_1
*CAP
1 *158:A 0.000572961
2 *160:A2 0.000935299
3 *156:X 8.31973e-05
4 *25:6 0.00159146
5 *158:A *158:B 2.0599e-05
6 *158:A *31:18 0.000190858
7 *158:A *41:10 0.000199435
8 *160:A2 *149:A 0.000363749
9 *160:A2 *175:A 0
10 *160:A2 *31:18 0.00027666
11 *160:A2 *40:23 0.000303775
12 *25:6 *31:18 4.58194e-05
13 *149:B *160:A2 0
14 *154:B *160:A2 0.000485285
15 *19:14 *160:A2 0.000135549
*RES
1 *156:X *25:6 10.2464 
2 *25:6 *160:A2 42.175 
3 *25:6 *158:A 27.175 
*END

*D_NET *26 0.00184375
*CONN
*I *158:B I *D sky130_fd_sc_hd__and2_1
*I *157:Y O *D sky130_fd_sc_hd__o21ai_1
*CAP
1 *158:B 0.000629496
2 *157:Y 0.000629496
3 *158:B *151:B 5.59013e-05
4 *158:B *157:B1 3.69047e-06
5 *158:B *41:10 0.000221654
6 z[3] *158:B 4.75911e-05
7 *153:A *158:B 0.000235324
8 *158:A *158:B 2.0599e-05
*RES
1 *157:Y *158:B 38.7429 
*END

*D_NET *27 0.00209136
*CONN
*I *159:A I *D sky130_fd_sc_hd__clkbuf_1
*I *158:X O *D sky130_fd_sc_hd__and2_1
*CAP
1 *159:A 0.000375236
2 *158:X 0.000375236
3 *159:A *151:A 0.000367389
4 *159:A *151:B 2.61099e-05
5 *159:A *177:A 0.000141591
6 *159:A *39:32 5.52238e-05
7 *159:A *41:18 5.33334e-05
8 *150:A3 *159:A 4.18895e-05
9 *152:A_N *159:A 0.000559259
10 *19:51 *159:A 9.60939e-05
*RES
1 *158:X *159:A 39.725 
*END

*D_NET *28 0.0065674
*CONN
*I *161:A I *D sky130_fd_sc_hd__clkbuf_1
*I *156:C I *D sky130_fd_sc_hd__or3_1
*I *155:B I *D sky130_fd_sc_hd__xor2_1
*I *145:D I *D sky130_fd_sc_hd__or4_2
*I *157:A2 I *D sky130_fd_sc_hd__o21ai_1
*I *162:X O *D sky130_fd_sc_hd__dlymetal6s2s_1
*CAP
1 *161:A 0.000345798
2 *156:C 0
3 *155:B 5.17445e-05
4 *145:D 0
5 *157:A2 0.000161382
6 *162:X 0.000683041
7 *28:49 0.000539699
8 *28:18 0.000422722
9 *28:12 0.000379896
10 *28:10 0.000943753
11 *155:B *155:A 5.49489e-05
12 *157:A2 *157:A1 0.00017063
13 *157:A2 *157:B1 9.98753e-05
14 *157:A2 *160:A1 0
15 *157:A2 *31:18 1.78447e-05
16 *161:A *177:A 5.71472e-05
17 *161:A *31:18 0.000242621
18 *28:10 *29:14 0.000922971
19 *28:10 *36:10 0.000718414
20 *28:12 *155:A 0.000117189
21 *28:12 *29:14 0.000150618
22 *28:12 *36:10 8.32242e-05
23 *28:12 *38:10 0
24 *28:18 *145:A 0.000225609
25 *28:18 *155:A 3.17148e-05
26 *28:18 *160:A1 0
27 *28:18 *38:10 0
28 *28:49 *156:B 1.92905e-05
29 *28:49 *36:25 0.000127267
*RES
1 *162:X *28:10 32.05 
2 *28:10 *28:12 2.55357 
3 *28:12 *28:18 9.05357 
4 *28:18 *157:A2 22.1036 
5 *28:18 *145:D 9.3 
6 *28:12 *155:B 14.7464 
7 *28:10 *28:49 8.32143 
8 *28:49 *156:C 9.3 
9 *28:49 *161:A 15.6214 
*END

*D_NET *29 0.00349501
*CONN
*I *170:A I *D sky130_fd_sc_hd__buf_2
*I *155:X O *D sky130_fd_sc_hd__xor2_1
*CAP
1 *170:A 0
2 *155:X 0.0010503
3 *29:14 0.0010503
4 *29:14 *171:A 0.000227532
5 *29:14 *37:10 0
6 *29:14 *38:10 9.32873e-05
7 *28:10 *29:14 0.000922971
8 *28:12 *29:14 0.000150618
*RES
1 *155:X *29:14 41.3714 
2 *29:14 *170:A 9.3 
*END

*D_NET *30 0.0011773
*CONN
*I *171:A I *D sky130_fd_sc_hd__buf_2
*I *159:X O *D sky130_fd_sc_hd__clkbuf_1
*CAP
1 *171:A 0.00034552
2 *159:X 0.00034552
3 *171:A *151:B 8.32171e-05
4 *171:A *177:A 0
5 *153:A *171:A 0.000175512
6 *29:14 *171:A 0.000227532
*RES
1 *159:X *171:A 34.1536 
*END

*D_NET *31 0.00482583
*CONN
*I *172:A I *D sky130_fd_sc_hd__buf_2
*I *160:Y O *D sky130_fd_sc_hd__a21boi_1
*CAP
1 *172:A 0
2 *160:Y 0.000905774
3 *31:18 0.000905774
4 *31:18 *149:A 0.000360894
5 *31:18 *157:B1 0.000225314
6 *31:18 *160:A1 0.000493585
7 *31:18 *174:A 0.000186662
8 *31:18 *37:21 0.000179656
9 *148:A *31:18 0
10 *149:B *31:18 0
11 *157:A2 *31:18 1.78447e-05
12 *158:A *31:18 0.000190858
13 *160:A2 *31:18 0.00027666
14 *161:A *31:18 0.000242621
15 *19:14 *31:18 0.000554415
16 *19:51 *31:18 0.00023995
17 *25:6 *31:18 4.58194e-05
*RES
1 *160:Y *31:18 46.2286 
2 *31:18 *172:A 9.3 
*END

*D_NET *32 0.00134074
*CONN
*I *173:A I *D sky130_fd_sc_hd__buf_2
*I *148:Y O *D sky130_fd_sc_hd__nor2_1
*CAP
1 *173:A 0.000420335
2 *148:Y 0.000420335
3 *173:A *41:10 0.000121238
4 z[4] *173:A 1.21955e-05
5 *148:B *173:A 1.92905e-05
6 *153:A *173:A 0.000347347
*RES
1 *148:Y *173:A 35.3857 
*END

*D_NET *33 0.00188639
*CONN
*I *174:A I *D sky130_fd_sc_hd__buf_2
*I *149:Y O *D sky130_fd_sc_hd__xnor2_1
*CAP
1 *174:A 0.000609391
2 *149:Y 0.000609391
3 *174:A *149:A 0.000139087
4 *174:A *176:A 0.000182086
5 *174:A *41:10 8.67803e-05
6 z[5] *174:A 6.27457e-05
7 *153:A *174:A 1.02504e-05
8 *31:18 *174:A 0.000186662
*RES
1 *149:Y *174:A 38.2607 
*END

*D_NET *34 0.00112694
*CONN
*I *175:A I *D sky130_fd_sc_hd__buf_2
*I *153:X O *D sky130_fd_sc_hd__clkbuf_1
*CAP
1 *175:A 0.000208352
2 *153:X 0.000208352
3 *175:A *149:A 0.000132442
4 *175:A *176:A 0.000538509
5 *175:A *40:23 3.92854e-05
6 *160:A2 *175:A 0
*RES
1 *153:X *175:A 34.4036 
*END

*D_NET *35 0.00298888
*CONN
*I *176:A I *D sky130_fd_sc_hd__clkbuf_4
*I *154:X O *D sky130_fd_sc_hd__xor2_1
*CAP
1 *176:A 0.000705023
2 *154:X 0.000705023
3 *176:A *40:23 9.86636e-05
4 *176:A *41:10 2.89114e-05
5 *153:A *176:A 0.000200406
6 *154:B *176:A 0.000530254
7 *174:A *176:A 0.000182086
8 *175:A *176:A 0.000538509
*RES
1 *154:X *176:A 46.2071 
*END

*D_NET *36 0.00463962
*CONN
*I *156:B I *D sky130_fd_sc_hd__or3_1
*I *145:C I *D sky130_fd_sc_hd__or4_2
*I *157:A1 I *D sky130_fd_sc_hd__o21ai_1
*I *155:A I *D sky130_fd_sc_hd__xor2_1
*I *163:X O *D sky130_fd_sc_hd__buf_1
*CAP
1 *156:B 3.49792e-05
2 *145:C 4.05636e-05
3 *157:A1 0.000174307
4 *155:A 0.00014083
5 *163:X 0.000802478
6 *36:29 0.000292288
7 *36:25 0.000422153
8 *36:10 0.00125306
9 *145:C *145:A 9.90431e-05
10 *157:A1 *157:B1 1.37292e-05
11 *157:A1 *160:A1 0
12 *157:A1 *38:10 0
13 *36:29 *157:B1 2.8266e-06
14 *36:29 *37:21 4.06782e-05
15 *36:29 *38:10 0
16 *155:B *155:A 5.49489e-05
17 *157:A2 *157:A1 0.00017063
18 *28:10 *36:10 0.000718414
19 *28:12 *155:A 0.000117189
20 *28:12 *36:10 8.32242e-05
21 *28:18 *155:A 3.17148e-05
22 *28:49 *156:B 1.92905e-05
23 *28:49 *36:25 0.000127267
*RES
1 *163:X *36:10 30.2286 
2 *36:10 *155:A 16.6929 
3 *36:10 *36:25 8.32143 
4 *36:25 *36:29 6.14286 
5 *36:29 *157:A1 17.3 
6 *36:29 *145:C 14.7464 
7 *36:25 *156:B 9.83571 
*END

*D_NET *37 0.00389561
*CONN
*I *145:B I *D sky130_fd_sc_hd__or4_2
*I *157:B1 I *D sky130_fd_sc_hd__o21ai_1
*I *156:A I *D sky130_fd_sc_hd__or3_1
*I *164:X O *D sky130_fd_sc_hd__buf_1
*CAP
1 *145:B 3.82418e-05
2 *157:B1 0.000153941
3 *156:A 0
4 *164:X 0.00130255
5 *37:21 0.000316477
6 *37:10 0.00142685
7 *37:10 *38:10 0
8 *37:21 *38:10 0
9 *154:B *37:10 0
10 *157:A1 *157:B1 1.37292e-05
11 *157:A2 *157:B1 9.98753e-05
12 *158:B *157:B1 3.69047e-06
13 *19:51 *37:10 7.7674e-05
14 *19:51 *37:21 1.41029e-05
15 *29:14 *37:10 0
16 *31:18 *157:B1 0.000225314
17 *31:18 *37:21 0.000179656
18 *36:29 *157:B1 2.8266e-06
19 *36:29 *37:21 4.06782e-05
*RES
1 *164:X *37:10 31.1036 
2 *37:10 *156:A 13.8 
3 *37:10 *37:21 3.08929 
4 *37:21 *157:B1 17.6036 
5 *37:21 *145:B 14.5321 
*END

*D_NET *38 0.00550546
*CONN
*I *145:A I *D sky130_fd_sc_hd__or4_2
*I *160:A1 I *D sky130_fd_sc_hd__a21boi_1
*I *165:X O *D sky130_fd_sc_hd__clkbuf_1
*CAP
1 *145:A 0.000157684
2 *160:A1 0.000897184
3 *165:X 0.000852732
4 *38:10 0.0019076
5 *38:10 *39:32 0.000441098
6 *145:C *145:A 9.90431e-05
7 *148:A *160:A1 0.000161411
8 *149:B *160:A1 0.000176226
9 *157:A1 *160:A1 0
10 *157:A1 *38:10 0
11 *157:A2 *160:A1 0
12 *28:12 *38:10 0
13 *28:18 *145:A 0.000225609
14 *28:18 *160:A1 0
15 *28:18 *38:10 0
16 *29:14 *38:10 9.32873e-05
17 *31:18 *160:A1 0.000493585
18 *36:29 *38:10 0
19 *37:10 *38:10 0
20 *37:21 *38:10 0
*RES
1 *165:X *38:10 26.5143 
2 *38:10 *160:A1 29.8 
3 *38:10 *145:A 17.2107 
*END

*D_NET *39 0.0048943
*CONN
*I *150:A1 I *D sky130_fd_sc_hd__o31a_1
*I *151:A I *D sky130_fd_sc_hd__or4_1
*I *147:A I *D sky130_fd_sc_hd__and2_1
*I *146:A I *D sky130_fd_sc_hd__nor2_1
*I *166:X O *D sky130_fd_sc_hd__buf_1
*CAP
1 *150:A1 0
2 *151:A 0.000170328
3 *147:A 0
4 *146:A 0.000109333
5 *166:X 5.05962e-05
6 *39:32 0.0011868
7 *39:10 0.000382954
8 *39:8 0.00134069
9 *146:A *154:A 2.82057e-05
10 *151:A *177:A 3.34687e-05
11 *39:10 *154:A 9.80029e-05
12 *151:D *151:A 0.000373331
13 *154:B *151:A 7.80714e-06
14 *159:A *151:A 0.000367389
15 *159:A *39:32 5.52238e-05
16 *160:B1_N *146:A 1.02504e-05
17 *165:A *39:32 0
18 *166:A *39:10 0
19 *19:18 *146:A 0.000166976
20 *19:51 *39:32 6.57914e-05
21 *23:8 *151:A 6.05161e-06
22 *38:10 *39:32 0.000441098
*RES
1 *166:X *39:8 14.3357 
2 *39:8 *39:10 5.58929 
3 *39:10 *146:A 16.6571 
4 *39:10 *147:A 13.8 
5 *39:8 *39:32 24.2679 
6 *39:32 *151:A 24.2286 
7 *39:32 *150:A1 9.3 
*END

*D_NET *40 0.00783099
*CONN
*I *151:B I *D sky130_fd_sc_hd__or4_1
*I *150:A2 I *D sky130_fd_sc_hd__o31a_1
*I *149:A I *D sky130_fd_sc_hd__xnor2_1
*I *167:X O *D sky130_fd_sc_hd__buf_1
*CAP
1 *151:B 0.000528714
2 *150:A2 3.12428e-05
3 *149:A 0.000226673
4 *167:X 0.00110245
5 *40:23 0.00111509
6 *40:8 0.00188426
7 *150:A2 *41:18 1.97695e-05
8 *151:B *41:18 0.0001399
9 *40:23 *177:A 7.83587e-05
10 z[2] *151:B 2.22043e-05
11 *146:B *40:8 1.21258e-05
12 *151:D *151:B 2.51343e-06
13 *153:A *151:B 0.000273199
14 *153:A *40:23 0
15 *154:B *40:23 0
16 *158:B *151:B 5.59013e-05
17 *159:A *151:B 2.61099e-05
18 *160:A2 *149:A 0.000363749
19 *160:A2 *40:23 0.000303775
20 *171:A *151:B 8.32171e-05
21 *174:A *149:A 0.000139087
22 *175:A *149:A 0.000132442
23 *175:A *40:23 3.92854e-05
24 *176:A *40:23 9.86636e-05
25 *20:8 *40:8 0.000791371
26 *31:18 *149:A 0.000360894
*RES
1 *167:X *40:8 27.8893 
2 *40:8 *149:A 22.8357 
3 *40:8 *40:23 17.6786 
4 *40:23 *150:A2 10.0321 
5 *40:23 *151:B 28.5857 
*END

*D_NET *41 0.00611366
*CONN
*I *150:B1 I *D sky130_fd_sc_hd__o31a_1
*I *151:C I *D sky130_fd_sc_hd__or4_1
*I *168:X O *D sky130_fd_sc_hd__buf_1
*CAP
1 *150:B1 0
2 *151:C 0.000121471
3 *168:X 0.00193865
4 *41:18 0.000291037
5 *41:10 0.00210822
6 *151:C *177:A 0.000389854
7 z[3] *41:10 4.5539e-05
8 z[4] *41:10 2.06178e-05
9 z[5] *41:10 0.000115369
10 *150:A2 *41:18 1.97695e-05
11 *151:B *41:18 0.0001399
12 *153:A *151:C 0.00021189
13 *153:A *41:10 0
14 *158:A *41:10 0.000199435
15 *158:B *41:10 0.000221654
16 *159:A *41:18 5.33334e-05
17 *173:A *41:10 0.000121238
18 *174:A *41:10 8.67803e-05
19 *176:A *41:10 2.89114e-05
*RES
1 *168:X *41:10 49.5143 
2 *41:10 *41:18 7.94643 
3 *41:18 *151:C 23.2821 
4 *41:18 *150:B1 9.3 
*END

*D_NET *42 0.00189496
*CONN
*I *154:A I *D sky130_fd_sc_hd__xor2_1
*I *169:X O *D sky130_fd_sc_hd__clkbuf_1
*CAP
1 *154:A 0.000709356
2 *169:X 0.000709356
3 *146:A *154:A 2.82057e-05
4 *160:B1_N *154:A 0.000176234
5 *19:18 *154:A 0.000173804
6 *39:10 *154:A 9.80029e-05
*RES
1 *169:X *154:A 41.1714 
*END

*D_NET *43 0.00197537
*CONN
*I *177:A I *D sky130_fd_sc_hd__buf_2
*I *161:X O *D sky130_fd_sc_hd__clkbuf_1
*CAP
1 *177:A 0.000427501
2 *161:X 0.000427501
3 *151:A *177:A 3.34687e-05
4 *151:C *177:A 0.000389854
5 *151:D *177:A 0.000320745
6 *153:A *177:A 9.9201e-05
7 *154:B *177:A 0
8 *159:A *177:A 0.000141591
9 *161:A *177:A 5.71472e-05
10 *171:A *177:A 0
11 *40:23 *177:A 7.83587e-05
*RES
1 *161:X *177:A 39.4929 
*END
