*SPEF "ieee 1481-1999"
*DESIGN "TwosComplementer"
*DATE "14:14:34 Wednesday April 23, 2025"
*VENDOR "The OpenROAD Project"
*PROGRAM "OpenROAD"
*VERSION "b16bda7e82721d10566ff7e2b68f1ff0be9f9e38"
*DESIGN_FLOW "NAME_SCOPE LOCAL" "PIN_CAP NONE"
*DIVIDER /
*DELIMITER :
*BUS_DELIMITER []
*T_UNIT 1 NS
*C_UNIT 1 PF
*R_UNIT 1 OHM
*L_UNIT 1 HENRY

*NAME_MAP
*3 x[0]
*4 x[1]
*5 x[2]
*6 x[3]
*7 x[4]
*8 x[5]
*9 x[6]
*10 x[7]
*11 z[0]
*12 z[1]
*13 z[2]
*14 z[3]
*15 z[4]
*16 z[5]
*17 z[6]
*18 z[7]
*19 _00_
*20 _01_
*21 _02_
*22 _03_
*23 _04_
*24 _05_
*25 _06_
*26 _07_
*27 _08_
*28 net1
*29 net10
*30 net11
*31 net12
*32 net13
*33 net14
*34 net15
*35 net16
*36 net2
*37 net3
*38 net4
*39 net5
*40 net6
*41 net7
*42 net8
*43 net9
*44 FILLER_0_0_21
*45 FILLER_0_0_27
*46 FILLER_0_0_29
*47 FILLER_0_0_37
*48 FILLER_0_0_9
*49 FILLER_0_10_18
*50 FILLER_0_10_26
*51 FILLER_0_10_29
*52 FILLER_0_10_37
*53 FILLER_0_10_6
*54 FILLER_0_11_18
*55 FILLER_0_11_30
*56 FILLER_0_11_34
*57 FILLER_0_11_41
*58 FILLER_0_11_47
*59 FILLER_0_11_6
*60 FILLER_0_12_13
*61 FILLER_0_12_25
*62 FILLER_0_12_29
*63 FILLER_0_1_16
*64 FILLER_0_1_22
*65 FILLER_0_1_3
*66 FILLER_0_1_30
*67 FILLER_0_1_42
*68 FILLER_0_1_9
*69 FILLER_0_2_21
*70 FILLER_0_2_27
*71 FILLER_0_2_29
*72 FILLER_0_2_41
*73 FILLER_0_2_47
*74 FILLER_0_2_9
*75 FILLER_0_3_10
*76 FILLER_0_3_22
*77 FILLER_0_3_3
*78 FILLER_0_3_34
*79 FILLER_0_3_38
*80 FILLER_0_4_15
*81 FILLER_0_4_24
*82 FILLER_0_4_29
*83 FILLER_0_4_3
*84 FILLER_0_4_41
*85 FILLER_0_4_47
*86 FILLER_0_5_18
*87 FILLER_0_5_30
*88 FILLER_0_5_35
*89 FILLER_0_5_43
*90 FILLER_0_5_6
*91 FILLER_0_6_15
*92 FILLER_0_6_23
*93 FILLER_0_6_27
*94 FILLER_0_6_29
*95 FILLER_0_6_3
*96 FILLER_0_6_37
*97 FILLER_0_6_45
*98 FILLER_0_7_15
*99 FILLER_0_7_27
*100 FILLER_0_7_3
*101 FILLER_0_7_35
*102 FILLER_0_8_18
*103 FILLER_0_8_26
*104 FILLER_0_8_29
*105 FILLER_0_8_35
*106 FILLER_0_8_6
*107 FILLER_0_9_15
*108 FILLER_0_9_27
*109 FILLER_0_9_3
*110 FILLER_0_9_39
*111 FILLER_0_9_47
*112 PHY_EDGE_ROW_0_Left_13
*113 PHY_EDGE_ROW_0_Right_0
*114 PHY_EDGE_ROW_10_Left_23
*115 PHY_EDGE_ROW_10_Right_10
*116 PHY_EDGE_ROW_11_Left_24
*117 PHY_EDGE_ROW_11_Right_11
*118 PHY_EDGE_ROW_12_Left_25
*119 PHY_EDGE_ROW_12_Right_12
*120 PHY_EDGE_ROW_1_Left_14
*121 PHY_EDGE_ROW_1_Right_1
*122 PHY_EDGE_ROW_2_Left_15
*123 PHY_EDGE_ROW_2_Right_2
*124 PHY_EDGE_ROW_3_Left_16
*125 PHY_EDGE_ROW_3_Right_3
*126 PHY_EDGE_ROW_4_Left_17
*127 PHY_EDGE_ROW_4_Right_4
*128 PHY_EDGE_ROW_5_Left_18
*129 PHY_EDGE_ROW_5_Right_5
*130 PHY_EDGE_ROW_6_Left_19
*131 PHY_EDGE_ROW_6_Right_6
*132 PHY_EDGE_ROW_7_Left_20
*133 PHY_EDGE_ROW_7_Right_7
*134 PHY_EDGE_ROW_8_Left_21
*135 PHY_EDGE_ROW_8_Right_8
*136 PHY_EDGE_ROW_9_Left_22
*137 PHY_EDGE_ROW_9_Right_9
*138 TAP_TAPCELL_ROW_0_26
*139 TAP_TAPCELL_ROW_10_31
*140 TAP_TAPCELL_ROW_12_32
*141 TAP_TAPCELL_ROW_2_27
*142 TAP_TAPCELL_ROW_4_28
*143 TAP_TAPCELL_ROW_6_29
*144 TAP_TAPCELL_ROW_8_30
*145 _09_
*146 _10_
*147 _11_
*148 _12_
*149 _13_
*150 _14_
*151 _15_
*152 _16_
*153 _17_
*154 _18_
*155 _19_
*156 _20_
*157 _21_
*158 _22_
*159 _23_
*160 _24_
*161 _25_
*162 input1
*163 input2
*164 input3
*165 input4
*166 input5
*167 input6
*168 input7
*169 input8
*170 output10
*171 output11
*172 output12
*173 output13
*174 output14
*175 output15
*176 output16
*177 output9

*PORTS
x[0] I
x[1] I
x[2] I
x[3] I
x[4] I
x[5] I
x[6] I
x[7] I
z[0] O
z[1] O
z[2] O
z[3] O
z[4] O
z[5] O
z[6] O
z[7] O

*D_NET *3 0.00111812
*CONN
*P x[0] I
*I *162:A I *D sky130_fd_sc_hd__dlymetal6s2s_1
*CAP
1 x[0] 0.00055906
2 *162:A 0
3 *3:11 0.00055906
4 *3:11 *4:17 0
*RES
1 x[0] *3:11 31.1218 
2 *3:11 *162:A 23 
*END

*D_NET *4 0.000815582
*CONN
*P x[1] I
*I *163:A I *D sky130_fd_sc_hd__buf_1
*CAP
1 x[1] 0.000407791
2 *163:A 0
3 *4:17 0.000407791
4 *4:17 *164:A 0
5 *3:11 *4:17 0
*RES
1 x[1] *4:17 28.9191 
2 *4:17 *163:A 23 
*END

*D_NET *5 0.000615123
*CONN
*P x[2] I
*I *164:A I *D sky130_fd_sc_hd__buf_1
*CAP
1 x[2] 0.000307562
2 *164:A 0.000307562
3 *164:A *6:17 0
4 *4:17 *164:A 0
*RES
1 x[2] *164:A 49.8062 
*END

*D_NET *6 0.000742726
*CONN
*P x[3] I
*I *165:A I *D sky130_fd_sc_hd__clkbuf_1
*CAP
1 x[3] 0.000371363
2 *165:A 0
3 *6:17 0.000371363
4 *6:17 *7:17 0
5 *6:17 *39:32 0
6 *164:A *6:17 0
*RES
1 x[3] *6:17 28.2148 
2 *6:17 *165:A 23 
*END

*D_NET *7 0.00065742
*CONN
*P x[4] I
*I *166:A I *D sky130_fd_sc_hd__buf_1
*CAP
1 x[4] 0.00032871
2 *166:A 0
3 *7:17 0.00032871
4 *7:17 *167:A 0
5 *7:17 *39:10 0
6 *6:17 *7:17 0
*RES
1 x[4] *7:17 27.1584 
2 *7:17 *166:A 23 
*END

*D_NET *8 0.000603153
*CONN
*P x[5] I
*I *167:A I *D sky130_fd_sc_hd__buf_1
*CAP
1 x[5] 0.000301577
2 *167:A 0.000301577
3 *167:A *168:A 0
4 *7:17 *167:A 0
*RES
1 x[5] *167:A 49.8062 
*END

*D_NET *9 0.000603153
*CONN
*P x[6] I
*I *168:A I *D sky130_fd_sc_hd__buf_1
*CAP
1 x[6] 0.000301577
2 *168:A 0.000301577
3 *168:A *10:11 0
4 *167:A *168:A 0
*RES
1 x[6] *168:A 49.8062 
*END

*D_NET *10 0.00130197
*CONN
*P x[7] I
*I *169:A I *D sky130_fd_sc_hd__clkbuf_1
*CAP
1 x[7] 0.000650983
2 *169:A 0
3 *10:11 0.000650983
4 *168:A *10:11 0
*RES
1 x[7] *10:11 32.0837 
2 *10:11 *169:A 23 
*END

*D_NET *11 0.00123536
*CONN
*P z[0] O
*I *177:X O *D sky130_fd_sc_hd__buf_2
*CAP
1 z[0] 0.00029892
2 *177:X 0.000318757
3 *11:8 0.000617678
4 z[0] z[1] 0
*RES
1 *177:X *11:8 44.6596 
2 *11:8 z[0] 9.10133 
*END

*D_NET *12 0.00046494
*CONN
*P z[1] O
*I *170:X O *D sky130_fd_sc_hd__buf_2
*CAP
1 z[1] 0.00023247
2 *170:X 0.00023247
3 z[1] z[2] 0
4 z[0] z[1] 0
*RES
1 *170:X z[1] 47.0789 
*END

*D_NET *13 0.000506653
*CONN
*P z[2] O
*I *171:X O *D sky130_fd_sc_hd__buf_2
*CAP
1 z[2] 0.000240976
2 *171:X 0.000240976
3 z[2] z[3] 0
4 z[2] *40:44 2.47015e-05
5 z[1] z[2] 0
*RES
1 *171:X z[2] 47.0789 
*END

*D_NET *14 0.00061813
*CONN
*P z[3] O
*I *172:X O *D sky130_fd_sc_hd__buf_2
*CAP
1 z[3] 0.000257243
2 *172:X 0.000257243
3 z[3] z[4] 0
4 z[3] *158:B 5.31385e-05
5 z[3] *41:10 5.05059e-05
6 z[2] z[3] 0
*RES
1 *172:X z[3] 47.4311 
*END

*D_NET *15 0.000503981
*CONN
*P z[4] O
*I *173:X O *D sky130_fd_sc_hd__buf_2
*CAP
1 z[4] 0.000234294
2 *173:X 0.000234294
3 z[4] z[5] 0
4 z[4] *32:10 1.27424e-05
5 z[4] *41:10 2.26497e-05
6 z[3] z[4] 0
*RES
1 *173:X z[4] 47.0789 
*END

*D_NET *16 0.000730843
*CONN
*P z[5] O
*I *174:X O *D sky130_fd_sc_hd__buf_2
*CAP
1 z[5] 0.000268894
2 *174:X 0.000268894
3 z[5] z[6] 0
4 z[5] *174:A 6.54744e-05
5 z[5] *41:10 0.00012758
6 z[4] z[5] 0
*RES
1 *174:X z[5] 48.4875 
*END

*D_NET *17 0.000991612
*CONN
*P z[6] O
*I *175:X O *D sky130_fd_sc_hd__buf_2
*CAP
1 z[6] 0.000495806
2 *175:X 0.000495806
3 z[6] z[7] 0
4 z[5] z[6] 0
*RES
1 *175:X z[6] 47.68 
*END

*D_NET *18 0.00110166
*CONN
*P z[7] O
*I *176:X O *D sky130_fd_sc_hd__clkbuf_4
*CAP
1 z[7] 0.000175108
2 *176:X 0.000375724
3 *18:8 0.000550832
4 z[6] z[7] 0
*RES
1 *176:X *18:8 45.7161 
2 *18:8 z[7] 8.672 
*END

*D_NET *19 0.00848546
*CONN
*I *150:A3 I *D sky130_fd_sc_hd__o31a_1
*I *151:D I *D sky130_fd_sc_hd__or4_1
*I *147:B I *D sky130_fd_sc_hd__and2_1
*I *146:B I *D sky130_fd_sc_hd__nor2_1
*I *160:B1_N I *D sky130_fd_sc_hd__a21boi_1
*I *145:X O *D sky130_fd_sc_hd__or4_2
*CAP
1 *150:A3 3.60345e-05
2 *151:D 0
3 *147:B 4.01155e-05
4 *146:B 4.42545e-05
5 *160:B1_N 0.000216409
6 *145:X 6.27375e-05
7 *19:59 0.000254626
8 *19:51 0.000630934
9 *19:18 0.000332675
10 *19:14 0.00096572
11 *19:8 0.0012566
12 *146:B *20:8 6.17437e-06
13 *146:B *40:6 1.21972e-05
14 *150:A3 *27:8 4.17736e-05
15 *160:B1_N *146:A 1.14452e-05
16 *160:B1_N *42:8 0.000195248
17 *19:14 *21:8 0.00109886
18 *19:14 *23:16 0.00032159
19 *19:14 *25:12 0.000141294
20 *19:14 *31:18 0.000613795
21 *19:18 *146:A 0.000185095
22 *19:18 *42:8 0.000192087
23 *19:51 *23:16 0.00053766
24 *19:51 *27:8 9.5877e-05
25 *19:51 *31:18 0.000266259
26 *19:51 *37:10 7.80954e-05
27 *19:51 *37:21 1.47563e-05
28 *19:51 *39:32 6.68919e-05
29 *19:59 *39:40 0.000408082
30 *19:59 *40:44 2.45549e-06
31 *19:59 *43:12 0.000355708
*RES
1 *145:X *19:8 38.6214 
2 *19:8 *19:14 36.2529 
3 *19:14 *19:18 17.61 
4 *19:18 *160:B1_N 42.1843 
5 *19:18 *146:B 38.6214 
6 *19:14 *147:B 23.8493 
7 *19:8 *19:51 24.715 
8 *19:51 *19:59 36.7736 
9 *19:59 *151:D 23 
10 *19:51 *150:A3 23.6214 
*END

*D_NET *20 0.00312249
*CONN
*I *148:A I *D sky130_fd_sc_hd__nor2_1
*I *149:B I *D sky130_fd_sc_hd__xnor2_1
*I *146:Y O *D sky130_fd_sc_hd__nor2_1
*CAP
1 *148:A 0.000312878
2 *149:B 0.000167799
3 *146:Y 0.000292944
4 *20:8 0.000773621
5 *148:A *21:8 0.000397596
6 *148:A *31:18 0
7 *148:A *38:16 0.000177852
8 *149:B *25:12 0
9 *149:B *31:18 0
10 *149:B *38:16 0.000195238
11 *20:8 *40:6 0.000798389
12 *146:B *20:8 6.17437e-06
*RES
1 *146:Y *20:8 46.7207 
2 *20:8 *149:B 41.6664 
3 *20:8 *148:A 45.0429 
*END

*D_NET *21 0.00239817
*CONN
*I *148:B I *D sky130_fd_sc_hd__nor2_1
*I *147:X O *D sky130_fd_sc_hd__and2_1
*CAP
1 *148:B 0
2 *147:X 0.000441116
3 *21:8 0.000441116
4 *21:8 *32:10 1.94812e-05
5 *148:A *21:8 0.000397596
6 *19:14 *21:8 0.00109886
*RES
1 *147:X *21:8 36.9821 
2 *21:8 *148:B 23 
*END

*D_NET *22 0.00169146
*CONN
*I *152:A_N I *D sky130_fd_sc_hd__and2b_1
*I *150:X O *D sky130_fd_sc_hd__o31a_1
*CAP
1 *152:A_N 3.65124e-05
2 *150:X 0.000197037
3 *22:8 0.000233549
4 *152:A_N *152:B 2.64616e-05
5 *22:8 *152:B 0.000223034
6 *22:8 *159:A 0.000620099
7 *22:8 *23:16 0.000354769
*RES
1 *150:X *22:8 46.2443 
2 *22:8 *152:A_N 38.6214 
*END

*D_NET *23 0.00516897
*CONN
*I *152:B I *D sky130_fd_sc_hd__and2b_1
*I *154:B I *D sky130_fd_sc_hd__xor2_1
*I *151:X O *D sky130_fd_sc_hd__or4_1
*CAP
1 *152:B 0.000275123
2 *154:B 0
3 *151:X 0.000156983
4 *23:16 0.00088128
5 *23:8 0.00131339
6 *23:8 *39:40 6.17437e-06
7 *23:16 *25:12 0.000537632
8 *23:16 *35:8 0.000527112
9 *23:16 *37:10 0
10 *23:16 *39:40 7.76364e-06
11 *23:16 *40:23 0
12 *23:16 *43:12 0
13 *152:A_N *152:B 2.64616e-05
14 *19:14 *23:16 0.00032159
15 *19:51 *23:16 0.00053766
16 *22:8 *152:B 0.000223034
17 *22:8 *23:16 0.000354769
*RES
1 *151:X *23:8 39.5743 
2 *23:8 *23:16 38.4279 
3 *23:16 *154:B 23 
4 *23:8 *152:B 43.0336 
*END

*D_NET *24 0.0034767
*CONN
*I *153:A I *D sky130_fd_sc_hd__clkbuf_1
*I *152:X O *D sky130_fd_sc_hd__and2b_1
*CAP
1 *153:A 0
2 *152:X 0.00010926
3 *24:12 0.000794114
4 *24:8 0.000903374
5 *24:12 *158:B 0.000245334
6 *24:12 *174:A 1.14452e-05
7 *24:12 *30:10 0.000194309
8 *24:12 *32:10 0.000385726
9 *24:12 *35:14 0.000222104
10 *24:12 *40:23 0
11 *24:12 *40:44 0.000290577
12 *24:12 *41:10 0
13 *24:12 *41:24 0.000221172
14 *24:12 *43:12 9.9284e-05
*RES
1 *152:X *24:8 39.5743 
2 *24:8 *24:12 36.9779 
3 *24:12 *153:A 23 
*END

*D_NET *25 0.00570963
*CONN
*I *158:A I *D sky130_fd_sc_hd__and2_1
*I *160:A2 I *D sky130_fd_sc_hd__a21boi_1
*I *156:X O *D sky130_fd_sc_hd__or3_1
*CAP
1 *158:A 0
2 *160:A2 0.00048793
3 *156:X 9.60605e-05
4 *25:33 0.000629158
5 *25:12 0.00107307
6 *25:6 0.00131035
7 *160:A2 *149:A 0.000276915
8 *160:A2 *31:10 0.000169567
9 *25:6 *31:18 4.67488e-05
10 *25:12 *149:A 9.10898e-05
11 *25:12 *31:18 0.000108477
12 *25:12 *34:8 0
13 *25:12 *40:23 0.000305602
14 *25:33 *158:B 2.10884e-05
15 *25:33 *31:18 0.000193749
16 *25:33 *41:10 0.000220904
17 *149:B *25:12 0
18 *19:14 *25:12 0.000141294
19 *23:16 *25:12 0.000537632
*RES
1 *156:X *25:6 24.0979 
2 *25:6 *25:12 46.6957 
3 *25:12 *160:A2 33.9993 
4 *25:6 *25:33 40.295 
5 *25:33 *158:A 23 
*END

*D_NET *26 0.00204187
*CONN
*I *158:B I *D sky130_fd_sc_hd__and2_1
*I *157:Y O *D sky130_fd_sc_hd__o21ai_1
*CAP
1 *158:B 0.000243151
2 *157:Y 0.000469701
3 *26:8 0.000712852
4 *158:B *40:44 6.16531e-05
5 *158:B *41:10 0.000231236
6 *26:8 *157:B1 3.7122e-06
7 z[3] *158:B 5.31385e-05
8 *24:12 *158:B 0.000245334
9 *25:33 *158:B 2.10884e-05
*RES
1 *157:Y *26:8 43.3857 
2 *26:8 *158:B 45.54 
*END

*D_NET *27 0.00235506
*CONN
*I *159:A I *D sky130_fd_sc_hd__clkbuf_1
*I *158:X O *D sky130_fd_sc_hd__and2_1
*CAP
1 *159:A 0.000321123
2 *158:X 0.000134847
3 *27:8 0.00045597
4 *159:A *39:40 0.000407208
5 *159:A *43:12 0.000142724
6 *27:8 *39:32 5.50049e-05
7 *27:8 *40:44 2.63049e-05
8 *27:8 *41:18 5.41288e-05
9 *150:A3 *27:8 4.17736e-05
10 *19:51 *27:8 9.5877e-05
11 *22:8 *159:A 0.000620099
*RES
1 *158:X *27:8 41.0036 
2 *27:8 *159:A 49.0614 
*END

*D_NET *28 0.00729008
*CONN
*I *161:A I *D sky130_fd_sc_hd__clkbuf_1
*I *156:C I *D sky130_fd_sc_hd__or3_1
*I *155:B I *D sky130_fd_sc_hd__xor2_1
*I *145:D I *D sky130_fd_sc_hd__or4_2
*I *157:A2 I *D sky130_fd_sc_hd__o21ai_1
*I *162:X O *D sky130_fd_sc_hd__dlymetal6s2s_1
*CAP
1 *161:A 0.000388479
2 *156:C 0
3 *155:B 6.03595e-05
4 *145:D 0
5 *157:A2 0
6 *162:X 0.000426691
7 *28:49 0.000611392
8 *28:26 0.000182529
9 *28:18 0.00047415
10 *28:12 0.000434781
11 *28:10 0.000652417
12 *28:8 0.000773393
13 *155:B *155:A 5.56279e-05
14 *161:A *31:18 0.000247282
15 *161:A *43:8 5.67058e-05
16 *28:10 *29:14 0.00102442
17 *28:10 *36:10 0.000796909
18 *28:12 *155:A 0.000129504
19 *28:12 *29:14 0.000166513
20 *28:12 *36:10 9.26098e-05
21 *28:12 *38:10 0
22 *28:18 *145:A 0.0002246
23 *28:18 *155:A 3.47781e-05
24 *28:18 *38:10 0
25 *28:18 *38:16 0
26 *28:26 *157:A1 0.000186933
27 *28:26 *157:B1 0.000103926
28 *28:26 *31:18 1.80023e-05
29 *28:26 *38:16 0
30 *28:49 *156:B 1.94812e-05
31 *28:49 *36:25 0.000128606
*RES
1 *162:X *28:8 45.2914 
2 *28:8 *28:10 13.8786 
3 *28:10 *28:12 2.96214 
4 *28:12 *28:18 20.2821 
5 *28:18 *28:26 34.4121 
6 *28:26 *157:A2 23 
7 *28:18 *145:D 23 
8 *28:12 *155:B 39.0979 
9 *28:10 *28:49 19.4329 
10 *28:49 *156:C 23 
11 *28:49 *161:A 30.3329 
*END

*D_NET *29 0.00384879
*CONN
*I *170:A I *D sky130_fd_sc_hd__buf_2
*I *155:X O *D sky130_fd_sc_hd__xor2_1
*CAP
1 *170:A 0
2 *155:X 0
3 *29:14 0.00116916
4 *29:6 0.00116916
5 *29:14 *30:10 0.0002263
6 *29:14 *37:10 0
7 *29:14 *38:10 9.32509e-05
8 *28:10 *29:14 0.00102442
9 *28:12 *29:14 0.000166513
*RES
1 *155:X *29:6 38 
2 *29:6 *29:14 41.7629 
3 *29:14 *170:A 23 
*END

*D_NET *30 0.00127829
*CONN
*I *171:A I *D sky130_fd_sc_hd__buf_2
*I *159:X O *D sky130_fd_sc_hd__clkbuf_1
*CAP
1 *171:A 0
2 *159:X 0.000382538
3 *30:10 0.000382538
4 *30:10 *40:44 9.26005e-05
5 *30:10 *43:12 0
6 *24:12 *30:10 0.000194309
7 *29:14 *30:10 0.0002263
*RES
1 *159:X *30:10 45.6021 
2 *30:10 *171:A 38 
*END

*D_NET *31 0.00527995
*CONN
*I *172:A I *D sky130_fd_sc_hd__buf_2
*I *160:Y O *D sky130_fd_sc_hd__a21boi_1
*CAP
1 *172:A 0
2 *160:Y 0.000253605
3 *31:18 0.000810051
4 *31:10 0.00106366
5 *31:10 *149:A 0.000358425
6 *31:10 *33:8 0.000185428
7 *31:10 *38:16 0.000495282
8 *31:18 *157:B1 0.000249918
9 *31:18 *37:21 0.000199701
10 *31:18 *38:16 0
11 *148:A *31:18 0
12 *149:B *31:18 0
13 *160:A2 *31:10 0.000169567
14 *161:A *31:18 0.000247282
15 *19:14 *31:18 0.000613795
16 *19:51 *31:18 0.000266259
17 *25:6 *31:18 4.67488e-05
18 *25:12 *31:18 0.000108477
19 *25:33 *31:18 0.000193749
20 *28:26 *31:18 1.80023e-05
*RES
1 *160:Y *31:10 48.1707 
2 *31:10 *31:18 37.2264 
3 *31:18 *172:A 23 
*END

*D_NET *32 0.00147898
*CONN
*I *173:A I *D sky130_fd_sc_hd__buf_2
*I *148:Y O *D sky130_fd_sc_hd__nor2_1
*CAP
1 *173:A 0
2 *148:Y 0.000469322
3 *32:10 0.000469322
4 *32:10 *41:10 0.000122388
5 z[4] *32:10 1.27424e-05
6 *21:8 *32:10 1.94812e-05
7 *24:12 *32:10 0.000385726
*RES
1 *148:Y *32:10 47.0314 
2 *32:10 *173:A 38 
*END

*D_NET *33 0.00201179
*CONN
*I *174:A I *D sky130_fd_sc_hd__buf_2
*I *149:Y O *D sky130_fd_sc_hd__xnor2_1
*CAP
1 *174:A 0.000141041
2 *149:Y 0.000524175
3 *33:8 0.000665216
4 *174:A *35:14 0.000190102
5 *174:A *41:10 8.77506e-05
6 *33:8 *149:A 0.000141154
7 z[5] *174:A 6.54744e-05
8 *24:12 *174:A 1.14452e-05
9 *31:10 *33:8 0.000185428
*RES
1 *149:Y *33:8 45.2914 
2 *33:8 *174:A 43.075 
*END

*D_NET *34 0.00127862
*CONN
*I *175:A I *D sky130_fd_sc_hd__buf_2
*I *153:X O *D sky130_fd_sc_hd__clkbuf_1
*CAP
1 *175:A 0
2 *153:X 0.000250939
3 *34:8 0.000250939
4 *34:8 *149:A 0.000138185
5 *34:8 *35:14 0.000597695
6 *34:8 *40:23 4.08641e-05
7 *25:12 *34:8 0
*RES
1 *153:X *34:8 45.8921 
2 *34:8 *175:A 38 
*END

*D_NET *35 0.00328912
*CONN
*I *176:A I *D sky130_fd_sc_hd__clkbuf_4
*I *154:X O *D sky130_fd_sc_hd__xor2_1
*CAP
1 *176:A 0
2 *154:X 0.000437045
3 *35:14 0.000374523
4 *35:8 0.000811568
5 *35:14 *40:23 9.95876e-05
6 *35:14 *41:6 2.93845e-05
7 *35:14 *41:10 0
8 *174:A *35:14 0.000190102
9 *23:16 *35:8 0.000527112
10 *24:12 *35:14 0.000222104
11 *34:8 *35:14 0.000597695
*RES
1 *154:X *35:8 47.1971 
2 *35:8 *35:14 27.3871 
3 *35:14 *176:A 23 
*END

*D_NET *36 0.00513495
*CONN
*I *156:B I *D sky130_fd_sc_hd__or3_1
*I *145:C I *D sky130_fd_sc_hd__or4_2
*I *157:A1 I *D sky130_fd_sc_hd__o21ai_1
*I *155:A I *D sky130_fd_sc_hd__xor2_1
*I *163:X O *D sky130_fd_sc_hd__buf_1
*CAP
1 *156:B 3.83322e-05
2 *145:C 4.56369e-05
3 *157:A1 0.000205094
4 *155:A 0.000167104
5 *163:X 0.000438709
6 *36:29 0.000342928
7 *36:25 0.000467455
8 *36:10 0.000947618
9 *36:8 0.000882297
10 *145:C *145:A 9.84851e-05
11 *157:A1 *157:B1 1.34354e-05
12 *157:A1 *38:10 0
13 *157:A1 *38:16 0
14 *36:29 *157:B1 2.76611e-06
15 *36:29 *37:21 4.06408e-05
16 *36:29 *38:10 0
17 *155:B *155:A 5.56279e-05
18 *28:10 *36:10 0.000796909
19 *28:12 *155:A 0.000129504
20 *28:12 *36:10 9.26098e-05
21 *28:18 *155:A 3.47781e-05
22 *28:26 *157:A1 0.000186933
23 *28:49 *156:B 1.94812e-05
24 *28:49 *36:25 0.000128606
*RES
1 *163:X *36:8 45.2914 
2 *36:8 *36:10 11.7657 
3 *36:10 *155:A 41.3557 
4 *36:10 *36:25 19.4329 
5 *36:25 *36:29 16.9057 
6 *36:29 *157:A1 42.06 
7 *36:29 *145:C 39.0979 
8 *36:25 *156:B 23.6214 
*END

*D_NET *37 0.00427404
*CONN
*I *145:B I *D sky130_fd_sc_hd__or4_2
*I *157:B1 I *D sky130_fd_sc_hd__o21ai_1
*I *156:A I *D sky130_fd_sc_hd__or3_1
*I *164:X O *D sky130_fd_sc_hd__buf_1
*CAP
1 *145:B 4.01155e-05
2 *157:B1 0.000192682
3 *156:A 0
4 *164:X 0.00100938
5 *37:21 0.000388873
6 *37:10 0.000541368
7 *37:6 0.00139467
8 *37:10 *38:10 0
9 *37:21 *38:10 0
10 *157:A1 *157:B1 1.34354e-05
11 *19:51 *37:10 7.80954e-05
12 *19:51 *37:21 1.47563e-05
13 *23:16 *37:10 0
14 *26:8 *157:B1 3.7122e-06
15 *28:26 *157:B1 0.000103926
16 *29:14 *37:10 0
17 *31:18 *157:B1 0.000249918
18 *31:18 *37:21 0.000199701
19 *36:29 *157:B1 2.76611e-06
20 *36:29 *37:21 4.06408e-05
*RES
1 *164:X *37:6 35.5321 
2 *37:6 *37:10 22.54 
3 *37:10 *156:A 38 
4 *37:10 *37:21 3.58357 
5 *37:21 *157:B1 42.4121 
6 *37:21 *145:B 38.8493 
*END

*D_NET *38 0.00595856
*CONN
*I *145:A I *D sky130_fd_sc_hd__or4_2
*I *160:A1 I *D sky130_fd_sc_hd__a21boi_1
*I *165:X O *D sky130_fd_sc_hd__clkbuf_1
*CAP
1 *145:A 0.00018382
2 *160:A1 0
3 *165:X 0.000678327
4 *38:16 0.000987966
5 *38:10 0.0014317
6 *38:8 0.000938238
7 *38:8 *39:32 0.000453802
8 *145:C *145:A 9.84851e-05
9 *148:A *38:16 0.000177852
10 *149:B *38:16 0.000195238
11 *157:A1 *38:10 0
12 *157:A1 *38:16 0
13 *28:12 *38:10 0
14 *28:18 *145:A 0.0002246
15 *28:18 *38:10 0
16 *28:18 *38:16 0
17 *28:26 *38:16 0
18 *29:14 *38:10 9.32509e-05
19 *31:10 *38:16 0.000495282
20 *31:18 *38:16 0
21 *36:29 *38:10 0
22 *37:10 *38:10 0
23 *37:21 *38:10 0
*RES
1 *165:X *38:8 47.6736 
2 *38:8 *38:10 5.075 
3 *38:10 *38:16 33.56 
4 *38:16 *160:A1 23 
5 *38:10 *145:A 41.9564 
*END

*D_NET *39 0.00541848
*CONN
*I *150:A1 I *D sky130_fd_sc_hd__o31a_1
*I *151:A I *D sky130_fd_sc_hd__or4_1
*I *147:A I *D sky130_fd_sc_hd__and2_1
*I *146:A I *D sky130_fd_sc_hd__nor2_1
*I *166:X O *D sky130_fd_sc_hd__buf_1
*CAP
1 *150:A1 0
2 *151:A 0
3 *147:A 0
4 *146:A 0.000124799
5 *166:X 5.45698e-05
6 *39:40 0.000213408
7 *39:32 0.00134251
8 *39:10 0.000428102
9 *39:8 0.00148697
10 *146:A *42:8 2.95125e-05
11 *39:10 *42:8 0.000102365
12 *39:40 *43:12 3.47776e-05
13 *159:A *39:40 0.000407208
14 *160:B1_N *146:A 1.14452e-05
15 *6:17 *39:32 0
16 *7:17 *39:10 0
17 *19:18 *146:A 0.000185095
18 *19:51 *39:32 6.68919e-05
19 *19:59 *39:40 0.000408082
20 *23:8 *39:40 6.17437e-06
21 *23:16 *39:40 7.76364e-06
22 *27:8 *39:32 5.50049e-05
23 *38:8 *39:32 0.000453802
*RES
1 *166:X *39:8 38.6214 
2 *39:8 *39:10 6.48357 
3 *39:10 *146:A 41.3143 
4 *39:10 *147:A 38 
5 *39:8 *39:32 37.9307 
6 *39:32 *39:40 36.8771 
7 *39:40 *151:A 23 
8 *39:32 *150:A1 23 
*END

*D_NET *40 0.00841618
*CONN
*I *151:B I *D sky130_fd_sc_hd__or4_1
*I *150:A2 I *D sky130_fd_sc_hd__o31a_1
*I *149:A I *D sky130_fd_sc_hd__xnor2_1
*I *167:X O *D sky130_fd_sc_hd__buf_1
*CAP
1 *151:B 0
2 *150:A2 3.3043e-05
3 *149:A 0.000267625
4 *167:X 0.00115655
5 *40:44 0.000592766
6 *40:23 0.00128063
7 *40:8 0.000922442
8 *40:6 0.00115655
9 *150:A2 *41:18 2.02517e-05
10 *40:23 *43:12 8.62783e-05
11 *40:44 *41:18 0.000139346
12 z[2] *40:44 2.47015e-05
13 *146:B *40:6 1.21972e-05
14 *158:B *40:44 6.16531e-05
15 *160:A2 *149:A 0.000276915
16 *19:59 *40:44 2.45549e-06
17 *20:8 *40:6 0.000798389
18 *23:16 *40:23 0
19 *24:12 *40:23 0
20 *24:12 *40:44 0.000290577
21 *25:12 *149:A 9.10898e-05
22 *25:12 *40:23 0.000305602
23 *27:8 *40:44 2.63049e-05
24 *30:10 *40:44 9.26005e-05
25 *31:10 *149:A 0.000358425
26 *33:8 *149:A 0.000141154
27 *34:8 *149:A 0.000138185
28 *34:8 *40:23 4.08641e-05
29 *35:14 *40:23 9.95876e-05
*RES
1 *167:X *40:6 39.3436 
2 *40:6 *40:8 15 
3 *40:8 *149:A 48.4814 
4 *40:8 *40:23 30.2871 
5 *40:23 *150:A2 23.8493 
6 *40:23 *40:44 41.9314 
7 *40:44 *151:B 23 
*END

*D_NET *41 0.006701
*CONN
*I *150:B1 I *D sky130_fd_sc_hd__o31a_1
*I *151:C I *D sky130_fd_sc_hd__or4_1
*I *168:X O *D sky130_fd_sc_hd__buf_1
*CAP
1 *150:B1 0
2 *151:C 0
3 *168:X 0.00123028
4 *41:24 0.000153199
5 *41:18 0.000346879
6 *41:10 0.00108745
7 *41:6 0.00212405
8 *41:24 *43:12 0.000431843
9 z[3] *41:10 5.05059e-05
10 z[4] *41:10 2.26497e-05
11 z[5] *41:10 0.00012758
12 *150:A2 *41:18 2.02517e-05
13 *158:B *41:10 0.000231236
14 *174:A *41:10 8.77506e-05
15 *24:12 *41:10 0
16 *24:12 *41:24 0.000221172
17 *25:33 *41:10 0.000220904
18 *27:8 *41:18 5.41288e-05
19 *32:10 *41:10 0.000122388
20 *35:14 *41:6 2.93845e-05
21 *35:14 *41:10 0
22 *40:44 *41:18 0.000139346
*RES
1 *168:X *41:6 43.155 
2 *41:6 *41:10 36.2736 
3 *41:10 *41:18 18.9979 
4 *41:18 *41:24 35.7793 
5 *41:24 *151:C 23 
6 *41:18 *150:B1 23 
*END

*D_NET *42 0.00209305
*CONN
*I *154:A I *D sky130_fd_sc_hd__xor2_1
*I *169:X O *D sky130_fd_sc_hd__clkbuf_1
*CAP
1 *154:A 0.000300166
2 *169:X 0.000486755
3 *42:8 0.000786921
4 *146:A *42:8 2.95125e-05
5 *160:B1_N *42:8 0.000195248
6 *19:18 *42:8 0.000192087
7 *39:10 *42:8 0.000102365
*RES
1 *169:X *42:8 48.3571 
2 *42:8 *154:A 43.3857 
*END

*D_NET *43 0.00223907
*CONN
*I *177:A I *D sky130_fd_sc_hd__buf_2
*I *161:X O *D sky130_fd_sc_hd__clkbuf_1
*CAP
1 *177:A 0
2 *161:X 3.83684e-05
3 *43:12 0.000477507
4 *43:8 0.000515876
5 *159:A *43:12 0.000142724
6 *161:A *43:8 5.67058e-05
7 *19:59 *43:12 0.000355708
8 *23:16 *43:12 0
9 *24:12 *43:12 9.9284e-05
10 *30:10 *43:12 0
11 *39:40 *43:12 3.47776e-05
12 *40:23 *43:12 8.62783e-05
13 *41:24 *43:12 0.000431843
*RES
1 *161:X *43:8 38.6214 
2 *43:8 *43:12 28.1743 
3 *43:12 *177:A 23 
*END
