* NGSPICE file created from topmodule.ext - technology: sky130A

* Black-box entry subcircuit for sky130_fd_sc_hd__decap_3 abstract view
.subckt sky130_fd_sc_hd__decap_3 VGND VNB VPB VPWR
.ends

* Black-box entry subcircuit for sky130_fd_sc_hd__decap_6 abstract view
.subckt sky130_fd_sc_hd__decap_6 VGND VNB VPB VPWR
.ends

* Black-box entry subcircuit for sky130_fd_sc_hd__fill_2 abstract view
.subckt sky130_fd_sc_hd__fill_2 VGND VNB VPB VPWR
.ends

* Black-box entry subcircuit for sky130_fd_sc_hd__tapvpwrvgnd_1 abstract view
.subckt sky130_fd_sc_hd__tapvpwrvgnd_1 VGND VPWR
.ends

* Black-box entry subcircuit for sky130_ef_sc_hd__decap_12 abstract view
.subckt sky130_ef_sc_hd__decap_12 VPWR VGND VPB VNB
.ends

* Black-box entry subcircuit for sky130_fd_sc_hd__fill_1 abstract view
.subckt sky130_fd_sc_hd__fill_1 VGND VNB VPB VPWR
.ends

* Black-box entry subcircuit for sky130_fd_sc_hd__decap_4 abstract view
.subckt sky130_fd_sc_hd__decap_4 VGND VNB VPB VPWR
.ends

* Black-box entry subcircuit for sky130_fd_sc_hd__diode_2 abstract view
.subckt sky130_fd_sc_hd__diode_2 DIODE VGND VNB VPB VPWR
.ends

* Black-box entry subcircuit for sky130_fd_sc_hd__decap_8 abstract view
.subckt sky130_fd_sc_hd__decap_8 VGND VNB VPB VPWR
.ends

* Black-box entry subcircuit for sky130_fd_sc_hd__dfxtp_4 abstract view
.subckt sky130_fd_sc_hd__dfxtp_4 CLK D VGND VNB VPB VPWR Q
.ends

* Black-box entry subcircuit for sky130_fd_sc_hd__mux2_4 abstract view
.subckt sky130_fd_sc_hd__mux2_4 A0 A1 S VGND VNB VPB VPWR X
.ends

* Black-box entry subcircuit for sky130_fd_sc_hd__a21o_2 abstract view
.subckt sky130_fd_sc_hd__a21o_2 A1 A2 B1 VGND VNB VPB VPWR X
.ends

* Black-box entry subcircuit for sky130_fd_sc_hd__a21o_4 abstract view
.subckt sky130_fd_sc_hd__a21o_4 A1 A2 B1 VGND VNB VPB VPWR X
.ends

* Black-box entry subcircuit for sky130_fd_sc_hd__buf_1 abstract view
.subckt sky130_fd_sc_hd__buf_1 A VGND VNB VPB VPWR X
.ends

* Black-box entry subcircuit for sky130_fd_sc_hd__nor2_8 abstract view
.subckt sky130_fd_sc_hd__nor2_8 A B VGND VNB VPB VPWR Y
.ends

* Black-box entry subcircuit for sky130_fd_sc_hd__mux4_2 abstract view
.subckt sky130_fd_sc_hd__mux4_2 A0 A1 A2 A3 S0 S1 VGND VNB VPB VPWR X
.ends

* Black-box entry subcircuit for sky130_fd_sc_hd__clkbuf_16 abstract view
.subckt sky130_fd_sc_hd__clkbuf_16 A VGND VNB VPB VPWR X
.ends

* Black-box entry subcircuit for sky130_fd_sc_hd__clkbuf_8 abstract view
.subckt sky130_fd_sc_hd__clkbuf_8 A VGND VNB VPB VPWR X
.ends

* Black-box entry subcircuit for sky130_fd_sc_hd__a21bo_4 abstract view
.subckt sky130_fd_sc_hd__a21bo_4 A1 A2 B1_N VGND VNB VPB VPWR X
.ends

* Black-box entry subcircuit for sky130_fd_sc_hd__mux2_2 abstract view
.subckt sky130_fd_sc_hd__mux2_2 A0 A1 S VGND VNB VPB VPWR X
.ends

* Black-box entry subcircuit for sky130_fd_sc_hd__nand2_4 abstract view
.subckt sky130_fd_sc_hd__nand2_4 A B VGND VNB VPB VPWR Y
.ends

* Black-box entry subcircuit for sky130_fd_sc_hd__nand2_8 abstract view
.subckt sky130_fd_sc_hd__nand2_8 A B VGND VNB VPB VPWR Y
.ends

* Black-box entry subcircuit for sky130_fd_sc_hd__o221a_2 abstract view
.subckt sky130_fd_sc_hd__o221a_2 A1 A2 B1 B2 C1 VGND VNB VPB VPWR X
.ends

* Black-box entry subcircuit for sky130_fd_sc_hd__buf_2 abstract view
.subckt sky130_fd_sc_hd__buf_2 A VGND VNB VPB VPWR X
.ends

* Black-box entry subcircuit for sky130_fd_sc_hd__dfxtp_2 abstract view
.subckt sky130_fd_sc_hd__dfxtp_2 CLK D VGND VNB VPB VPWR Q
.ends

* Black-box entry subcircuit for sky130_fd_sc_hd__o221a_4 abstract view
.subckt sky130_fd_sc_hd__o221a_4 A1 A2 B1 B2 C1 VGND VNB VPB VPWR X
.ends

* Black-box entry subcircuit for sky130_fd_sc_hd__clkbuf_2 abstract view
.subckt sky130_fd_sc_hd__clkbuf_2 A VGND VNB VPB VPWR X
.ends

* Black-box entry subcircuit for sky130_fd_sc_hd__buf_12 abstract view
.subckt sky130_fd_sc_hd__buf_12 A VGND VNB VPB VPWR X
.ends

* Black-box entry subcircuit for sky130_fd_sc_hd__and2b_1 abstract view
.subckt sky130_fd_sc_hd__and2b_1 A_N B VGND VNB VPB VPWR X
.ends

* Black-box entry subcircuit for sky130_fd_sc_hd__or3b_4 abstract view
.subckt sky130_fd_sc_hd__or3b_4 A B C_N VGND VNB VPB VPWR X
.ends

* Black-box entry subcircuit for sky130_fd_sc_hd__a22oi_4 abstract view
.subckt sky130_fd_sc_hd__a22oi_4 A1 A2 B1 B2 VGND VNB VPB VPWR Y
.ends

* Black-box entry subcircuit for sky130_fd_sc_hd__a21bo_1 abstract view
.subckt sky130_fd_sc_hd__a21bo_1 A1 A2 B1_N VGND VNB VPB VPWR X
.ends

* Black-box entry subcircuit for sky130_fd_sc_hd__mux2_1 abstract view
.subckt sky130_fd_sc_hd__mux2_1 A0 A1 S VGND VNB VPB VPWR X
.ends

* Black-box entry subcircuit for sky130_fd_sc_hd__or3_4 abstract view
.subckt sky130_fd_sc_hd__or3_4 A B C VGND VNB VPB VPWR X
.ends

* Black-box entry subcircuit for sky130_fd_sc_hd__buf_8 abstract view
.subckt sky130_fd_sc_hd__buf_8 A VGND VNB VPB VPWR X
.ends

* Black-box entry subcircuit for sky130_fd_sc_hd__nand3b_4 abstract view
.subckt sky130_fd_sc_hd__nand3b_4 A_N B C VGND VNB VPB VPWR Y
.ends

* Black-box entry subcircuit for sky130_fd_sc_hd__and2b_4 abstract view
.subckt sky130_fd_sc_hd__and2b_4 A_N B VGND VNB VPB VPWR X
.ends

* Black-box entry subcircuit for sky130_fd_sc_hd__o21a_4 abstract view
.subckt sky130_fd_sc_hd__o21a_4 A1 A2 B1 VGND VNB VPB VPWR X
.ends

* Black-box entry subcircuit for sky130_fd_sc_hd__nand3_4 abstract view
.subckt sky130_fd_sc_hd__nand3_4 A B C VGND VNB VPB VPWR Y
.ends

* Black-box entry subcircuit for sky130_fd_sc_hd__a21bo_2 abstract view
.subckt sky130_fd_sc_hd__a21bo_2 A1 A2 B1_N VGND VNB VPB VPWR X
.ends

* Black-box entry subcircuit for sky130_fd_sc_hd__clkbuf_4 abstract view
.subckt sky130_fd_sc_hd__clkbuf_4 A VGND VNB VPB VPWR X
.ends

* Black-box entry subcircuit for sky130_fd_sc_hd__a22o_2 abstract view
.subckt sky130_fd_sc_hd__a22o_2 A1 A2 B1 B2 VGND VNB VPB VPWR X
.ends

* Black-box entry subcircuit for sky130_fd_sc_hd__and2b_2 abstract view
.subckt sky130_fd_sc_hd__and2b_2 A_N B VGND VNB VPB VPWR X
.ends

* Black-box entry subcircuit for sky130_fd_sc_hd__a31o_2 abstract view
.subckt sky130_fd_sc_hd__a31o_2 A1 A2 A3 B1 VGND VNB VPB VPWR X
.ends

* Black-box entry subcircuit for sky130_fd_sc_hd__a22o_1 abstract view
.subckt sky130_fd_sc_hd__a22o_1 A1 A2 B1 B2 VGND VNB VPB VPWR X
.ends

* Black-box entry subcircuit for sky130_fd_sc_hd__and3_4 abstract view
.subckt sky130_fd_sc_hd__and3_4 A B C VGND VNB VPB VPWR X
.ends

* Black-box entry subcircuit for sky130_fd_sc_hd__buf_4 abstract view
.subckt sky130_fd_sc_hd__buf_4 A VGND VNB VPB VPWR X
.ends

* Black-box entry subcircuit for sky130_fd_sc_hd__a21o_1 abstract view
.subckt sky130_fd_sc_hd__a21o_1 A1 A2 B1 VGND VNB VPB VPWR X
.ends

* Black-box entry subcircuit for sky130_fd_sc_hd__a21oi_2 abstract view
.subckt sky130_fd_sc_hd__a21oi_2 A1 A2 B1 VGND VNB VPB VPWR Y
.ends

* Black-box entry subcircuit for sky130_fd_sc_hd__a21oi_4 abstract view
.subckt sky130_fd_sc_hd__a21oi_4 A1 A2 B1 VGND VNB VPB VPWR Y
.ends

* Black-box entry subcircuit for sky130_fd_sc_hd__a31oi_4 abstract view
.subckt sky130_fd_sc_hd__a31oi_4 A1 A2 A3 B1 VGND VNB VPB VPWR Y
.ends

* Black-box entry subcircuit for sky130_fd_sc_hd__or2b_4 abstract view
.subckt sky130_fd_sc_hd__or2b_4 A B_N VGND VNB VPB VPWR X
.ends

* Black-box entry subcircuit for sky130_fd_sc_hd__clkinv_1 abstract view
.subckt sky130_fd_sc_hd__clkinv_1 A VGND VNB VPB VPWR Y
.ends

* Black-box entry subcircuit for sky130_fd_sc_hd__o21ba_1 abstract view
.subckt sky130_fd_sc_hd__o21ba_1 A1 A2 B1_N VGND VNB VPB VPWR X
.ends

* Black-box entry subcircuit for sky130_fd_sc_hd__dlymetal6s2s_1 abstract view
.subckt sky130_fd_sc_hd__dlymetal6s2s_1 A VGND VNB VPB VPWR X
.ends

* Black-box entry subcircuit for sky130_fd_sc_hd__nor2b_4 abstract view
.subckt sky130_fd_sc_hd__nor2b_4 A B_N VGND VNB VPB VPWR Y
.ends

* Black-box entry subcircuit for sky130_fd_sc_hd__bufinv_16 abstract view
.subckt sky130_fd_sc_hd__bufinv_16 A VGND VNB VPB VPWR Y
.ends

* Black-box entry subcircuit for sky130_fd_sc_hd__o21ai_4 abstract view
.subckt sky130_fd_sc_hd__o21ai_4 A1 A2 B1 VGND VNB VPB VPWR Y
.ends

* Black-box entry subcircuit for sky130_fd_sc_hd__nand2_2 abstract view
.subckt sky130_fd_sc_hd__nand2_2 A B VGND VNB VPB VPWR Y
.ends

* Black-box entry subcircuit for sky130_fd_sc_hd__clkbuf_1 abstract view
.subckt sky130_fd_sc_hd__clkbuf_1 A VGND VNB VPB VPWR X
.ends

* Black-box entry subcircuit for sky130_fd_sc_hd__clkinvlp_2 abstract view
.subckt sky130_fd_sc_hd__clkinvlp_2 A VGND VNB VPB VPWR Y
.ends

* Black-box entry subcircuit for sky130_fd_sc_hd__xor2_4 abstract view
.subckt sky130_fd_sc_hd__xor2_4 A B VGND VNB VPB VPWR X
.ends

* Black-box entry subcircuit for sky130_fd_sc_hd__nor2_4 abstract view
.subckt sky130_fd_sc_hd__nor2_4 A B VGND VNB VPB VPWR Y
.ends

* Black-box entry subcircuit for sky130_fd_sc_hd__o221a_1 abstract view
.subckt sky130_fd_sc_hd__o221a_1 A1 A2 B1 B2 C1 VGND VNB VPB VPWR X
.ends

* Black-box entry subcircuit for sky130_fd_sc_hd__mux2_8 abstract view
.subckt sky130_fd_sc_hd__mux2_8 A0 A1 S VGND VNB VPB VPWR X
.ends

* Black-box entry subcircuit for sky130_fd_sc_hd__and3b_4 abstract view
.subckt sky130_fd_sc_hd__and3b_4 A_N B C VGND VNB VPB VPWR X
.ends

* Black-box entry subcircuit for sky130_fd_sc_hd__a211o_2 abstract view
.subckt sky130_fd_sc_hd__a211o_2 A1 A2 B1 C1 VGND VNB VPB VPWR X
.ends

* Black-box entry subcircuit for sky130_fd_sc_hd__dfxtp_1 abstract view
.subckt sky130_fd_sc_hd__dfxtp_1 CLK D VGND VNB VPB VPWR Q
.ends

* Black-box entry subcircuit for sky130_fd_sc_hd__nor2_2 abstract view
.subckt sky130_fd_sc_hd__nor2_2 A B VGND VNB VPB VPWR Y
.ends

* Black-box entry subcircuit for sky130_fd_sc_hd__clkinv_8 abstract view
.subckt sky130_fd_sc_hd__clkinv_8 A VGND VNB VPB VPWR Y
.ends

* Black-box entry subcircuit for sky130_fd_sc_hd__inv_8 abstract view
.subckt sky130_fd_sc_hd__inv_8 A VGND VNB VPB VPWR Y
.ends

* Black-box entry subcircuit for sky130_fd_sc_hd__mux4_1 abstract view
.subckt sky130_fd_sc_hd__mux4_1 A0 A1 A2 A3 S0 S1 VGND VNB VPB VPWR X
.ends

* Black-box entry subcircuit for sky130_fd_sc_hd__xnor2_4 abstract view
.subckt sky130_fd_sc_hd__xnor2_4 A B VGND VNB VPB VPWR Y
.ends

* Black-box entry subcircuit for sky130_fd_sc_hd__buf_6 abstract view
.subckt sky130_fd_sc_hd__buf_6 A VGND VNB VPB VPWR X
.ends

* Black-box entry subcircuit for sky130_fd_sc_hd__o21a_2 abstract view
.subckt sky130_fd_sc_hd__o21a_2 A1 A2 B1 VGND VNB VPB VPWR X
.ends

* Black-box entry subcircuit for sky130_fd_sc_hd__or2b_2 abstract view
.subckt sky130_fd_sc_hd__or2b_2 A B_N VGND VNB VPB VPWR X
.ends

* Black-box entry subcircuit for sky130_fd_sc_hd__o21a_1 abstract view
.subckt sky130_fd_sc_hd__o21a_1 A1 A2 B1 VGND VNB VPB VPWR X
.ends

* Black-box entry subcircuit for sky130_fd_sc_hd__a31o_1 abstract view
.subckt sky130_fd_sc_hd__a31o_1 A1 A2 A3 B1 VGND VNB VPB VPWR X
.ends

* Black-box entry subcircuit for sky130_fd_sc_hd__or2_4 abstract view
.subckt sky130_fd_sc_hd__or2_4 A B VGND VNB VPB VPWR X
.ends

.subckt topmodule A1[0] A1[1] A1[2] A1[3] A1[4] A2[0] A2[1] A2[2] A2[3] A2[4] A3[0]
+ A3[1] A3[2] A3[3] A3[4] RD1[0] RD1[1] RD1[2] RD1[3] RD2[0] RD2[1] RD2[2] RD2[3]
+ VGND VPWR WD3[0] WD3[1] WD3[2] WD3[3] WE3 clk inputA[0] inputA[1] inputA[2] inputA[3]
+ inputB[0] inputB[1] inputB[2] inputB[3] opcode[0] opcode[1] outputC[0] outputC[1]
+ outputC[2] outputC[3]
XPHY_EDGE_ROW_176_Left_388 VGND VGND VPWR VPWR sky130_fd_sc_hd__decap_3
XFILLER_0_94_77 VGND VGND VPWR VPWR sky130_fd_sc_hd__decap_6
XFILLER_0_118_62 VGND VGND VPWR VPWR sky130_fd_sc_hd__fill_2
XTAP_TAPCELL_ROW_124_2300 VGND VPWR sky130_fd_sc_hd__tapvpwrvgnd_1
XTAP_TAPCELL_ROW_124_2311 VGND VPWR sky130_fd_sc_hd__tapvpwrvgnd_1
XFILLER_0_27_93 VPWR VGND VPWR VGND sky130_ef_sc_hd__decap_12
XFILLER_0_89_461 VPWR VGND VPWR VGND sky130_ef_sc_hd__decap_12
XFILLER_0_167_809 VPWR VGND VPWR VGND sky130_ef_sc_hd__decap_12
XFILLER_0_193_105 VGND VGND VPWR VPWR sky130_fd_sc_hd__decap_6
XFILLER_0_134_83 VGND VGND VPWR VPWR sky130_fd_sc_hd__fill_1
XFILLER_0_18_701 VPWR VGND VPWR VGND sky130_ef_sc_hd__decap_12
XFILLER_0_159_393 VGND VGND VPWR VPWR sky130_fd_sc_hd__fill_2
XFILLER_0_43_92 VGND VGND VPWR VPWR sky130_fd_sc_hd__fill_2
XFILLER_0_92_637 VGND VGND VPWR VPWR sky130_fd_sc_hd__decap_6
XFILLER_0_91_125 VPWR VGND VPWR VGND sky130_ef_sc_hd__decap_12
XPHY_EDGE_ROW_185_Left_397 VGND VGND VPWR VPWR sky130_fd_sc_hd__decap_3
XFILLER_0_57_391 VGND VGND VPWR VPWR sky130_fd_sc_hd__fill_1
XTAP_TAPCELL_ROW_102_1974 VGND VPWR sky130_fd_sc_hd__tapvpwrvgnd_1
XFILLER_0_174_363 VGND VGND VPWR VPWR sky130_fd_sc_hd__fill_1
XFILLER_0_119_279 VGND VGND VPWR VPWR sky130_fd_sc_hd__fill_1
XFILLER_0_9_499 VGND VGND VPWR VPWR sky130_fd_sc_hd__decap_4
XINSDIODE1__0788__A3 Module2.RegisterFile\[23\]\[3\] VGND VGND VPWR VPWR sky130_fd_sc_hd__diode_2
XFILLER_0_91_169 VPWR VGND VPWR VGND sky130_ef_sc_hd__decap_12
XFILLER_0_60_501 VPWR VGND VPWR VGND sky130_ef_sc_hd__decap_12
XFILLER_0_17_277 VGND VGND VPWR VPWR sky130_fd_sc_hd__decap_3
XFILLER_0_115_441 VGND VGND VPWR VPWR sky130_fd_sc_hd__decap_6
XFILLER_0_162_569 VPWR VGND VPWR VGND sky130_ef_sc_hd__decap_12
XFILLER_0_45_597 VPWR VGND VPWR VGND sky130_ef_sc_hd__decap_12
XFILLER_0_60_545 VPWR VGND VPWR VGND sky130_ef_sc_hd__decap_12
XTAP_TAPCELL_ROW_135_2473 VGND VPWR sky130_fd_sc_hd__tapvpwrvgnd_1
XINSDIODE1__1198__B1 _0577_ VGND VGND VPWR VPWR sky130_fd_sc_hd__diode_2
XFILLER_0_60_589 VPWR VGND VPWR VGND sky130_ef_sc_hd__decap_12
XFILLER_0_130_433 VPWR VGND VPWR VGND sky130_ef_sc_hd__decap_12
XFILLER_0_13_461 VPWR VGND VPWR VGND sky130_ef_sc_hd__decap_12
XINSDIODE1__0945__A0 Module2.RegisterFile\[18\]\[3\] VGND VGND VPWR VPWR sky130_fd_sc_hd__diode_2
XFILLER_0_7_81 VPWR VGND VPWR VGND sky130_ef_sc_hd__decap_12
XFILLER_0_130_477 VGND VGND VPWR VPWR sky130_fd_sc_hd__decap_6
XTAP_TAPCELL_ROW_181_3161 VGND VPWR sky130_fd_sc_hd__tapvpwrvgnd_1
XFILLER_0_204_209 VPWR VGND VPWR VGND sky130_ef_sc_hd__decap_12
XINSDIODE1__0819__A net14 VGND VGND VPWR VPWR sky130_fd_sc_hd__diode_2
XFILLER_0_99_225 VPWR VGND VPWR VGND sky130_ef_sc_hd__decap_12
XFILLER_0_169_113 VGND VGND VPWR VPWR sky130_fd_sc_hd__decap_8
XFILLER_0_68_601 VPWR VGND VPWR VGND sky130_ef_sc_hd__decap_12
XINSDIODE1__1360__D _0110_ VGND VGND VPWR VPWR sky130_fd_sc_hd__diode_2
XFILLER_0_169_157 VGND VGND VPWR VPWR sky130_fd_sc_hd__decap_3
XTAP_TAPCELL_ROW_64_1402 VGND VPWR sky130_fd_sc_hd__tapvpwrvgnd_1
XFILLER_0_67_111 VGND VGND VPWR VPWR sky130_fd_sc_hd__fill_1
XFILLER_0_185_617 VGND VGND VPWR VPWR sky130_fd_sc_hd__decap_8
XTAP_TAPCELL_ROW_64_1413 VGND VPWR sky130_fd_sc_hd__tapvpwrvgnd_1
XFILLER_0_68_645 VPWR VGND VPWR VGND sky130_ef_sc_hd__decap_12
XFILLER_0_185_639 VGND VGND VPWR VPWR sky130_fd_sc_hd__decap_8
XFILLER_0_83_615 VGND VGND VPWR VPWR sky130_fd_sc_hd__fill_1
XFILLER_0_138_533 VPWR VGND VPWR VGND sky130_ef_sc_hd__decap_12
XFILLER_0_55_317 VPWR VGND VPWR VGND sky130_ef_sc_hd__decap_12
XFILLER_0_125_205 VPWR VGND VPWR VGND sky130_ef_sc_hd__decap_12
XFILLER_0_165_385 VGND VGND VPWR VPWR sky130_fd_sc_hd__decap_6
XFILLER_0_70_309 VPWR VGND VPWR VGND sky130_ef_sc_hd__decap_12
XFILLER_0_36_575 VPWR VGND VPWR VGND sky130_ef_sc_hd__decap_12
XFILLER_0_125_249 VPWR VGND VPWR VGND sky130_ef_sc_hd__decap_12
XFILLER_0_180_344 VPWR VGND VPWR VGND sky130_ef_sc_hd__decap_12
XFILLER_0_23_214 VGND VGND VPWR VPWR sky130_fd_sc_hd__decap_8
XFILLER_0_3_609 VGND VGND VPWR VPWR sky130_fd_sc_hd__decap_6
XFILLER_0_23_225 VPWR VGND VPWR VGND sky130_ef_sc_hd__decap_12
XFILLER_0_106_463 VPWR VGND VPWR VGND sky130_ef_sc_hd__decap_12
XFILLER_0_180_377 VPWR VGND VPWR VGND sky130_ef_sc_hd__decap_12
XFILLER_0_210_41 VPWR VGND VPWR VGND sky130_ef_sc_hd__decap_12
XFILLER_0_134_783 VPWR VGND VPWR VGND sky130_ef_sc_hd__decap_12
XINSDIODE1__1189__A0 Module2.RegisterFile\[4\]\[2\] VGND VGND VPWR VPWR sky130_fd_sc_hd__diode_2
XFILLER_0_23_269 VGND VGND VPWR VPWR sky130_fd_sc_hd__decap_3
XFILLER_0_133_293 VPWR VGND VPWR VGND sky130_ef_sc_hd__decap_12
XFILLER_0_210_85 VPWR VGND VPWR VGND sky130_ef_sc_hd__decap_12
XINSDIODE1__0936__A0 Module2.RegisterFile\[18\]\[0\] VGND VGND VPWR VPWR sky130_fd_sc_hd__diode_2
XFILLER_0_32_781 VPWR VGND VPWR VGND sky130_ef_sc_hd__decap_12
XFILLER_0_48_15 VPWR VGND VPWR VGND sky130_ef_sc_hd__decap_12
XTAP_TAPCELL_ROW_75_1564 VGND VPWR sky130_fd_sc_hd__tapvpwrvgnd_1
XFILLER_0_139_39 VPWR VGND VPWR VGND sky130_ef_sc_hd__decap_12
XTAP_TAPCELL_ROW_75_1575 VGND VPWR sky130_fd_sc_hd__tapvpwrvgnd_1
XTAP_TAPCELL_ROW_166_2934 VGND VPWR sky130_fd_sc_hd__tapvpwrvgnd_1
X_1270_ clknet_4_2__leaf_clk _0028_ VGND VGND VPWR VPWR Module2.RegisterFile\[28\]\[0\]
+ sky130_fd_sc_hd__dfxtp_4
XFILLER_0_155_27 VPWR VGND VPWR VGND sky130_ef_sc_hd__decap_12
XFILLER_0_3_39 VGND VGND VPWR VPWR sky130_fd_sc_hd__decap_3
XTAP_TAPCELL_ROW_199_3433 VGND VPWR sky130_fd_sc_hd__tapvpwrvgnd_1
XTAP_TAPCELL_ROW_106_2030 VGND VPWR sky130_fd_sc_hd__tapvpwrvgnd_1
XTAP_TAPCELL_ROW_106_2041 VGND VPWR sky130_fd_sc_hd__tapvpwrvgnd_1
XFILLER_0_188_433 VPWR VGND VPWR VGND sky130_ef_sc_hd__decap_12
XINSDIODE1__1270__D _0028_ VGND VGND VPWR VPWR sky130_fd_sc_hd__diode_2
XFILLER_0_149_809 VGND VGND VPWR VPWR sky130_fd_sc_hd__decap_8
XFILLER_0_171_15 VPWR VGND VPWR VGND sky130_ef_sc_hd__decap_12
XFILLER_0_188_477 VGND VGND VPWR VPWR sky130_fd_sc_hd__fill_2
XFILLER_0_175_105 VGND VGND VPWR VPWR sky130_fd_sc_hd__decap_6
XFILLER_0_58_133 VGND VGND VPWR VPWR sky130_fd_sc_hd__decap_6
XFILLER_0_147_3 VGND VGND VPWR VPWR sky130_fd_sc_hd__decap_8
XFILLER_0_188_499 VPWR VGND VPWR VGND sky130_ef_sc_hd__decap_12
XFILLER_0_47_829 VGND VGND VPWR VPWR sky130_fd_sc_hd__fill_2
XFILLER_0_175_149 VPWR VGND VPWR VGND sky130_ef_sc_hd__decap_12
XFILLER_0_58_177 VPWR VGND VPWR VGND sky130_ef_sc_hd__decap_12
XFILLER_0_191_609 VGND VGND VPWR VPWR sky130_fd_sc_hd__decap_6
XFILLER_0_74_637 VGND VGND VPWR VPWR sky130_fd_sc_hd__decap_6
XFILLER_0_73_125 VPWR VGND VPWR VGND sky130_ef_sc_hd__decap_12
XFILLER_0_104_53 VPWR VGND VPWR VGND sky130_ef_sc_hd__decap_12
XFILLER_0_184_661 VPWR VGND VPWR VGND sky130_ef_sc_hd__decap_12
XFILLER_0_13_51 VGND VGND VPWR VPWR sky130_fd_sc_hd__decap_4
XTAP_TAPCELL_ROW_15_673 VGND VPWR sky130_fd_sc_hd__tapvpwrvgnd_1
XFILLER_0_6_403 VGND VGND VPWR VPWR sky130_fd_sc_hd__fill_2
XFILLER_0_27_553 VGND VGND VPWR VPWR sky130_fd_sc_hd__decap_6
XFILLER_0_144_525 VGND VGND VPWR VPWR sky130_fd_sc_hd__decap_6
XFILLER_0_73_169 VPWR VGND VPWR VGND sky130_ef_sc_hd__decap_12
XFILLER_0_104_97 VPWR VGND VPWR VGND sky130_ef_sc_hd__decap_12
X_0985_ Module2.RegisterFile\[10\]\[0\] _0396_ _0427_ VGND VGND VPWR VPWR _0428_ sky130_fd_sc_hd__mux2_4
XFILLER_0_183_193 VGND VGND VPWR VPWR sky130_fd_sc_hd__fill_2
XFILLER_0_82_681 VPWR VGND VPWR VGND sky130_ef_sc_hd__decap_12
XFILLER_0_144_569 VPWR VGND VPWR VGND sky130_ef_sc_hd__decap_12
XFILLER_0_171_344 VGND VGND VPWR VPWR sky130_fd_sc_hd__fill_2
XFILLER_0_6_469 VGND VGND VPWR VPWR sky130_fd_sc_hd__decap_6
XFILLER_0_89_55 VGND VGND VPWR VPWR sky130_fd_sc_hd__fill_1
XFILLER_0_42_545 VPWR VGND VPWR VGND sky130_ef_sc_hd__decap_12
XFILLER_0_120_41 VPWR VGND VPWR VGND sky130_ef_sc_hd__decap_12
XFILLER_0_125_783 VGND VGND VPWR VPWR sky130_fd_sc_hd__fill_1
XFILLER_0_14_269 VGND VGND VPWR VPWR sky130_fd_sc_hd__fill_2
XFILLER_0_112_433 VPWR VGND VPWR VGND sky130_ef_sc_hd__decap_12
XFILLER_0_42_589 VPWR VGND VPWR VGND sky130_ef_sc_hd__decap_12
XINSDIODE1__0927__A0 Module2.RegisterFile\[1\]\[1\] VGND VGND VPWR VPWR sky130_fd_sc_hd__diode_2
XFILLER_0_120_85 VPWR VGND VPWR VGND sky130_ef_sc_hd__decap_12
XFILLER_0_140_753 VGND VGND VPWR VPWR sky130_fd_sc_hd__decap_3
XFILLER_0_112_477 VPWR VGND VPWR VGND sky130_ef_sc_hd__decap_12
XFILLER_0_10_475 VGND VGND VPWR VPWR sky130_fd_sc_hd__fill_1
XTAP_TAPCELL_ROW_130_2392 VGND VPWR sky130_fd_sc_hd__tapvpwrvgnd_1
XINSDIODE1__1234__S _0529_ VGND VGND VPWR VPWR sky130_fd_sc_hd__diode_2
XFILLER_0_97_729 VPWR VGND VPWR VGND sky130_ef_sc_hd__decap_12
XFILLER_0_210_713 VPWR VGND VPWR VGND sky130_ef_sc_hd__decap_12
XFILLER_0_49_111 VGND VGND VPWR VPWR sky130_fd_sc_hd__fill_1
XFILLER_0_167_617 VPWR VGND VPWR VGND sky130_ef_sc_hd__decap_12
XFILLER_0_179_477 VPWR VGND VPWR VGND sky130_ef_sc_hd__decap_12
XFILLER_0_210_757 VPWR VGND VPWR VGND sky130_ef_sc_hd__decap_12
XTAP_TAPCELL_ROW_46_1132 VGND VPWR sky130_fd_sc_hd__tapvpwrvgnd_1
XPHY_EDGE_ROW_193_Left_405 VGND VGND VPWR VPWR sky130_fd_sc_hd__decap_3
XTAP_TAPCELL_ROW_46_1143 VGND VPWR sky130_fd_sc_hd__tapvpwrvgnd_1
XFILLER_0_65_615 VGND VGND VPWR VPWR sky130_fd_sc_hd__fill_1
XFILLER_0_92_412 VGND VGND VPWR VPWR sky130_fd_sc_hd__fill_2
XFILLER_0_77_497 VGND VGND VPWR VPWR sky130_fd_sc_hd__decap_6
XTAP_TAPCELL_ROW_34_960 VGND VPWR sky130_fd_sc_hd__tapvpwrvgnd_1
XTAP_TAPCELL_ROW_137_2502 VGND VPWR sky130_fd_sc_hd__tapvpwrvgnd_1
XFILLER_0_18_531 VGND VGND VPWR VPWR sky130_fd_sc_hd__fill_1
XFILLER_0_64_136 VGND VGND VPWR VPWR sky130_fd_sc_hd__decap_4
XFILLER_0_92_445 VPWR VGND VPWR VGND sky130_ef_sc_hd__decap_12
XFILLER_0_108_728 VPWR VGND VPWR VGND sky130_ef_sc_hd__decap_12
XFILLER_0_107_205 VPWR VGND VPWR VGND sky130_ef_sc_hd__decap_12
XFILLER_0_135_514 VGND VGND VPWR VPWR sky130_fd_sc_hd__fill_2
XFILLER_0_161_81 VPWR VGND VPWR VGND sky130_ef_sc_hd__decap_12
XFILLER_0_147_385 VGND VGND VPWR VPWR sky130_fd_sc_hd__decap_6
XFILLER_0_52_309 VPWR VGND VPWR VGND sky130_ef_sc_hd__decap_12
XFILLER_0_45_361 VPWR VGND VPWR VGND sky130_ef_sc_hd__decap_12
XFILLER_0_61_821 VPWR VGND VPWR VGND sky130_ef_sc_hd__decap_12
XFILLER_0_123_709 VPWR VGND VPWR VGND sky130_ef_sc_hd__decap_12
XTAP_TAPCELL_ROW_150_2702 VGND VPWR sky130_fd_sc_hd__tapvpwrvgnd_1
XFILLER_0_21_729 VGND VGND VPWR VPWR sky130_fd_sc_hd__decap_6
XFILLER_0_115_293 VPWR VGND VPWR VGND sky130_ef_sc_hd__decap_12
XFILLER_0_131_753 VPWR VGND VPWR VGND sky130_ef_sc_hd__decap_12
XFILLER_0_14_781 VPWR VGND VPWR VGND sky130_ef_sc_hd__decap_12
XINSDIODE1__0918__A0 _0345_ VGND VGND VPWR VPWR sky130_fd_sc_hd__diode_2
XFILLER_0_131_797 VPWR VGND VPWR VGND sky130_ef_sc_hd__decap_12
XINSDIODE1__1355__D _0105_ VGND VGND VPWR VPWR sky130_fd_sc_hd__diode_2
XTAP_TAPCELL_ROW_57_1294 VGND VPWR sky130_fd_sc_hd__tapvpwrvgnd_1
XFILLER_0_18_29 VPWR VGND VPWR VGND sky130_ef_sc_hd__decap_12
XTAP_TAPCELL_ROW_148_2664 VGND VPWR sky130_fd_sc_hd__tapvpwrvgnd_1
XTAP_TAPCELL_ROW_70_1494 VGND VPWR sky130_fd_sc_hd__tapvpwrvgnd_1
XINSDIODE1__0697__A2 Module2.RegisterFile\[7\]\[0\] VGND VGND VPWR VPWR sky130_fd_sc_hd__diode_2
XFILLER_0_198_731 VGND VGND VPWR VPWR sky130_fd_sc_hd__fill_2
XFILLER_0_87_217 VGND VGND VPWR VPWR sky130_fd_sc_hd__decap_6
XTAP_TAPCELL_ROW_161_2864 VGND VPWR sky130_fd_sc_hd__tapvpwrvgnd_1
XFILLER_0_201_713 VPWR VGND VPWR VGND sky130_ef_sc_hd__decap_12
XINSDIODE1_60 _0022_ VGND VGND VPWR VPWR sky130_fd_sc_hd__diode_2
XINSDIODE1_71 _0029_ VGND VGND VPWR VPWR sky130_fd_sc_hd__diode_2
XINSDIODE1_506 _0079_ VGND VGND VPWR VPWR sky130_fd_sc_hd__diode_2
XINSDIODE1_82 _0029_ VGND VGND VPWR VPWR sky130_fd_sc_hd__diode_2
XFILLER_0_157_105 VGND VGND VPWR VPWR sky130_fd_sc_hd__decap_6
XINSDIODE1_93 _0033_ VGND VGND VPWR VPWR sky130_fd_sc_hd__diode_2
XINSDIODE1_517 _0079_ VGND VGND VPWR VPWR sky130_fd_sc_hd__diode_2
XINSDIODE1_528 _0082_ VGND VGND VPWR VPWR sky130_fd_sc_hd__diode_2
XFILLER_0_201_768 VGND VGND VPWR VPWR sky130_fd_sc_hd__fill_1
XFILLER_0_200_245 VGND VGND VPWR VPWR sky130_fd_sc_hd__decap_6
XFILLER_0_185_447 VGND VGND VPWR VPWR sky130_fd_sc_hd__fill_1
XINSDIODE1_539 _0099_ VGND VGND VPWR VPWR sky130_fd_sc_hd__diode_2
XFILLER_0_157_149 VPWR VGND VPWR VGND sky130_ef_sc_hd__decap_12
XTAP_TAPCELL_ROW_194_3352 VGND VPWR sky130_fd_sc_hd__tapvpwrvgnd_1
XTAP_TAPCELL_ROW_194_3363 VGND VPWR sky130_fd_sc_hd__tapvpwrvgnd_1
XTAP_TAPCELL_ROW_32_919 VGND VPWR sky130_fd_sc_hd__tapvpwrvgnd_1
XFILLER_0_56_637 VGND VGND VPWR VPWR sky130_fd_sc_hd__decap_6
XFILLER_0_173_609 VGND VGND VPWR VPWR sky130_fd_sc_hd__decap_6
XFILLER_0_200_289 VGND VGND VPWR VPWR sky130_fd_sc_hd__fill_2
XFILLER_0_28_339 VPWR VGND VPWR VGND sky130_ef_sc_hd__decap_12
XFILLER_0_55_125 VPWR VGND VPWR VGND sky130_ef_sc_hd__decap_12
XFILLER_0_138_363 VGND VGND VPWR VPWR sky130_fd_sc_hd__fill_1
XFILLER_0_50_27 VGND VGND VPWR VPWR sky130_fd_sc_hd__fill_1
XFILLER_0_126_525 VGND VGND VPWR VPWR sky130_fd_sc_hd__decap_6
XTAP_TAPCELL_ROW_12_621 VGND VPWR sky130_fd_sc_hd__tapvpwrvgnd_1
XTAP_TAPCELL_ROW_12_632 VGND VPWR sky130_fd_sc_hd__tapvpwrvgnd_1
XFILLER_0_55_169 VPWR VGND VPWR VGND sky130_ef_sc_hd__decap_12
XFILLER_0_71_629 VPWR VGND VPWR VGND sky130_ef_sc_hd__decap_12
XFILLER_0_153_333 VGND VGND VPWR VPWR sky130_fd_sc_hd__decap_3
XFILLER_0_165_193 VPWR VGND VPWR VGND sky130_ef_sc_hd__decap_12
XFILLER_0_24_501 VPWR VGND VPWR VGND sky130_ef_sc_hd__decap_12
XFILLER_0_64_681 VPWR VGND VPWR VGND sky130_ef_sc_hd__decap_12
XFILLER_0_126_569 VGND VGND VPWR VPWR sky130_fd_sc_hd__decap_3
XFILLER_0_180_141 VPWR VGND VPWR VGND sky130_ef_sc_hd__decap_12
XFILLER_0_24_545 VPWR VGND VPWR VGND sky130_ef_sc_hd__decap_12
XFILLER_0_3_417 VGND VGND VPWR VPWR sky130_fd_sc_hd__decap_3
XTAP_TAPCELL_ROW_77_1604 VGND VPWR sky130_fd_sc_hd__tapvpwrvgnd_1
XFILLER_0_141_517 VPWR VGND VPWR VGND sky130_ef_sc_hd__decap_12
X_0770_ _0190_ _0278_ _0282_ VGND VGND VPWR VPWR _0283_ sky130_fd_sc_hd__a21o_2
XFILLER_0_107_783 VGND VGND VPWR VPWR sky130_fd_sc_hd__fill_1
XFILLER_0_181_697 VPWR VGND VPWR VGND sky130_ef_sc_hd__decap_12
XFILLER_0_24_589 VGND VGND VPWR VPWR sky130_fd_sc_hd__fill_2
XFILLER_0_12_729 VGND VGND VPWR VPWR sky130_fd_sc_hd__decap_3
XFILLER_0_11_217 VGND VGND VPWR VPWR sky130_fd_sc_hd__decap_6
XINSDIODE1__0909__A0 Module2.RegisterFile\[12\]\[1\] VGND VGND VPWR VPWR sky130_fd_sc_hd__diode_2
XFILLER_0_59_69 VPWR VGND VPWR VGND sky130_ef_sc_hd__decap_12
XINSDIODE1__1265__D _0023_ VGND VGND VPWR VPWR sky130_fd_sc_hd__diode_2
XFILLER_0_208_301 VGND VGND VPWR VPWR sky130_fd_sc_hd__decap_6
XFILLER_0_166_15 VPWR VGND VPWR VGND sky130_ef_sc_hd__decap_12
X_1322_ clknet_4_0__leaf_clk _0076_ VGND VGND VPWR VPWR Module2.RegisterFile\[26\]\[0\]
+ sky130_fd_sc_hd__dfxtp_4
XFILLER_0_75_57 VPWR VGND VPWR VGND sky130_ef_sc_hd__decap_12
X_1253_ clknet_4_5__leaf_clk _0011_ VGND VGND VPWR VPWR Module2.RegisterFile\[0\]\[3\]
+ sky130_fd_sc_hd__dfxtp_4
XFILLER_0_208_389 VPWR VGND VPWR VGND sky130_ef_sc_hd__decap_12
XINSDIODE1__0688__A2 Module2.RegisterFile\[11\]\[0\] VGND VGND VPWR VPWR sky130_fd_sc_hd__diode_2
XINSDIODE1_input22_A inputA[2] VGND VGND VPWR VPWR sky130_fd_sc_hd__diode_2
X_1184_ _0504_ _0561_ _0565_ VGND VGND VPWR VPWR _0566_ sky130_fd_sc_hd__a21o_4
XINSDIODE1__1317__CLK clknet_4_7__leaf_clk VGND VGND VPWR VPWR sky130_fd_sc_hd__diode_2
XFILLER_0_79_729 VPWR VGND VPWR VGND sky130_ef_sc_hd__decap_12
XINSDIODE1__0893__S _0369_ VGND VGND VPWR VPWR sky130_fd_sc_hd__diode_2
XTAP_TAPCELL_ROW_88_1766 VGND VPWR sky130_fd_sc_hd__tapvpwrvgnd_1
XFILLER_0_189_753 VPWR VGND VPWR VGND sky130_ef_sc_hd__decap_12
XFILLER_0_149_617 VPWR VGND VPWR VGND sky130_ef_sc_hd__decap_12
XFILLER_0_189_797 VPWR VGND VPWR VGND sky130_ef_sc_hd__decap_12
XFILLER_0_115_52 VGND VGND VPWR VPWR sky130_fd_sc_hd__decap_4
XINSDIODE1__0906__B _0380_ VGND VGND VPWR VPWR sky130_fd_sc_hd__diode_2
XFILLER_0_19_317 VPWR VGND VPWR VGND sky130_ef_sc_hd__decap_12
XFILLER_0_176_469 VGND VGND VPWR VPWR sky130_fd_sc_hd__decap_6
XFILLER_0_24_83 VGND VGND VPWR VPWR sky130_fd_sc_hd__fill_1
XFILLER_0_59_497 VGND VGND VPWR VPWR sky130_fd_sc_hd__decap_6
XFILLER_0_191_417 VPWR VGND VPWR VGND sky130_ef_sc_hd__decap_12
XFILLER_0_74_445 VPWR VGND VPWR VGND sky130_ef_sc_hd__decap_12
XFILLER_0_117_525 VPWR VGND VPWR VGND sky130_ef_sc_hd__decap_12
XFILLER_0_34_309 VPWR VGND VPWR VGND sky130_ef_sc_hd__decap_12
XFILLER_0_6_222 VGND VGND VPWR VPWR sky130_fd_sc_hd__fill_2
XFILLER_0_74_489 VPWR VGND VPWR VGND sky130_ef_sc_hd__decap_12
XTAP_TAPCELL_ROW_119_2232 VGND VPWR sky130_fd_sc_hd__tapvpwrvgnd_1
XFILLER_0_43_821 VGND VGND VPWR VPWR sky130_fd_sc_hd__fill_1
XFILLER_0_55_681 VGND VGND VPWR VPWR sky130_fd_sc_hd__decap_3
XFILLER_0_105_709 VPWR VGND VPWR VGND sky130_ef_sc_hd__decap_12
XFILLER_0_43_832 VGND VGND VPWR VPWR sky130_fd_sc_hd__fill_2
XTAP_TAPCELL_ROW_41_1062 VGND VPWR sky130_fd_sc_hd__tapvpwrvgnd_1
XFILLER_0_144_377 VPWR VGND VPWR VGND sky130_ef_sc_hd__decap_12
X_0968_ _0418_ VGND VGND VPWR VPWR _0064_ sky130_fd_sc_hd__buf_1
XFILLER_0_6_277 VPWR VGND VPWR VGND sky130_ef_sc_hd__decap_12
XFILLER_0_160_837 VGND VGND VPWR VPWR sky130_fd_sc_hd__decap_4
XFILLER_0_172_697 VGND VGND VPWR VPWR sky130_fd_sc_hd__decap_3
XTAP_TAPCELL_ROW_132_2421 VGND VPWR sky130_fd_sc_hd__tapvpwrvgnd_1
XINSDIODE1__0641__B _0158_ VGND VGND VPWR VPWR sky130_fd_sc_hd__diode_2
XTAP_TAPCELL_ROW_132_2432 VGND VPWR sky130_fd_sc_hd__tapvpwrvgnd_1
XFILLER_0_71_3 VPWR VGND VPWR VGND sky130_ef_sc_hd__decap_12
XFILLER_0_113_753 VPWR VGND VPWR VGND sky130_ef_sc_hd__decap_12
X_0899_ Module2.RegisterFile\[16\]\[1\] _0320_ _0375_ VGND VGND VPWR VPWR _0377_ sky130_fd_sc_hd__mux2_4
XFILLER_0_42_397 VGND VGND VPWR VPWR sky130_fd_sc_hd__fill_2
XFILLER_0_113_797 VPWR VGND VPWR VGND sky130_ef_sc_hd__decap_12
XFILLER_0_199_517 VPWR VGND VPWR VGND sky130_ef_sc_hd__decap_12
XFILLER_0_69_217 VGND VGND VPWR VPWR sky130_fd_sc_hd__decap_6
XFILLER_0_97_559 VGND VGND VPWR VPWR sky130_fd_sc_hd__fill_1
XFILLER_0_139_105 VGND VGND VPWR VPWR sky130_fd_sc_hd__decap_6
XTAP_TAPCELL_ROW_143_2594 VGND VPWR sky130_fd_sc_hd__tapvpwrvgnd_1
XFILLER_0_84_209 VPWR VGND VPWR VGND sky130_ef_sc_hd__decap_12
XFILLER_0_167_447 VGND VGND VPWR VPWR sky130_fd_sc_hd__fill_1
XFILLER_0_194_233 VPWR VGND VPWR VGND sky130_ef_sc_hd__decap_12
XFILLER_0_77_261 VPWR VGND VPWR VGND sky130_ef_sc_hd__decap_12
XFILLER_0_93_721 VGND VGND VPWR VPWR sky130_fd_sc_hd__decap_6
XFILLER_0_155_609 VGND VGND VPWR VPWR sky130_fd_sc_hd__fill_2
XFILLER_0_38_637 VGND VGND VPWR VPWR sky130_fd_sc_hd__decap_6
XFILLER_0_37_125 VPWR VGND VPWR VGND sky130_ef_sc_hd__decap_12
XFILLER_0_194_277 VGND VGND VPWR VPWR sky130_fd_sc_hd__decap_4
XTAP_TAPCELL_ROW_176_3082 VGND VPWR sky130_fd_sc_hd__tapvpwrvgnd_1
XFILLER_0_182_428 VPWR VGND VPWR VGND sky130_ef_sc_hd__decap_12
XFILLER_0_93_765 VGND VGND VPWR VPWR sky130_fd_sc_hd__fill_2
XTAP_TAPCELL_ROW_176_3093 VGND VPWR sky130_fd_sc_hd__tapvpwrvgnd_1
XFILLER_0_108_525 VGND VGND VPWR VPWR sky130_fd_sc_hd__decap_6